/*---------------------------------------------------------------------------*\
  =========                 |
  \\      /  F ield         | OpenFOAM: The Open Source CFD Toolbox
   \\    /   O peration     | Website:  https://openfoam.org
    \\  /    A nd           | Version:  10
     \\/     M anipulation  |
\*---------------------------------------------------------------------------*/
Build  : 10-c4cf895ad8fa
Exec   : simpleFoam -parallel
Date   : Jul 17 2024
Time   : 10:33:58
Host   : "openfoam-vm"
PID    : 1502372
I/O    : uncollated
Case   : /home/ubuntu/OpenFOAM/OpenFOAM-wind-sim
nProcs : 30
Slaves : 
29
(
"openfoam-vm.1502373"
"openfoam-vm.1502374"
"openfoam-vm.1502375"
"openfoam-vm.1502376"
"openfoam-vm.1502377"
"openfoam-vm.1502378"
"openfoam-vm.1502379"
"openfoam-vm.1502380"
"openfoam-vm.1502381"
"openfoam-vm.1502382"
"openfoam-vm.1502383"
"openfoam-vm.1502384"
"openfoam-vm.1502385"
"openfoam-vm.1502386"
"openfoam-vm.1502387"
"openfoam-vm.1502388"
"openfoam-vm.1502389"
"openfoam-vm.1502390"
"openfoam-vm.1502391"
"openfoam-vm.1502392"
"openfoam-vm.1502393"
"openfoam-vm.1502394"
"openfoam-vm.1502395"
"openfoam-vm.1502396"
"openfoam-vm.1502397"
"openfoam-vm.1502398"
"openfoam-vm.1502399"
"openfoam-vm.1502400"
"openfoam-vm.1502401"
)

Pstream initialised with:
    floatTransfer      : 0
    nProcsSimpleSum    : 0
    commsType          : nonBlocking
    polling iterations : 0
sigFpe : Enabling floating point exception trapping (FOAM_SIGFPE).
fileModificationChecking : Monitoring run-time modified files using timeStampMaster (fileModificationSkew 10)
allowSystemOperations : Allowing user-supplied system call operations

// * * * * * * * * * * * * * * * * * * * * * * * * * * * * * * * * * * * * * //
Create time

Create mesh for time = 0


SIMPLE: Convergence criteria found
        p: tolerance 1e-06
        U: tolerance 1e-06
        k: tolerance 1e-05
        omega: tolerance 1e-05

Reading field p

Reading field U

Reading/calculating face flux field phi

Selecting viscosity model Newtonian
Selecting turbulence model type RAS
Selecting RAS turbulence model kOmegaSST
Selecting patchDistMethod meshWave
RAS
{
    RASModel        kOmegaSST;
    turbulence      on;
    printCoeffs     on;
    alphaK1         0.85;
    alphaK2         1;
    alphaOmega1     0.5;
    alphaOmega2     0.856;
    gamma1          0.555556;
    gamma2          0.44;
    beta1           0.075;
    beta2           0.0828;
    betaStar        0.09;
    a1              0.31;
    b1              1;
    c1              10;
    F3              false;
}

No MRF models present

No fvModels present
No fvConstraints present

Starting time loop

Time = 1s

smoothSolver:  Solving for Ux, Initial residual = 1, Final residual = 0.0140446, No Iterations 2
smoothSolver:  Solving for Uy, Initial residual = 1, Final residual = 0.0419167, No Iterations 1
smoothSolver:  Solving for Uz, Initial residual = 1, Final residual = 0.039422, No Iterations 1
GAMG:  Solving for p, Initial residual = 1, Final residual = 0.046808, No Iterations 2
time step continuity errors : sum local = 2.48399e-07, global = -1.64173e-07, cumulative = -1.64173e-07
smoothSolver:  Solving for omega, Initial residual = 0.0449254, Final residual = 0.00373349, No Iterations 1
smoothSolver:  Solving for k, Initial residual = 1, Final residual = 0.0977725, No Iterations 1
ExecutionTime = 0.431711 s  ClockTime = 0 s

Time = 2s

smoothSolver:  Solving for Ux, Initial residual = 0.131756, Final residual = 0.0110548, No Iterations 1
smoothSolver:  Solving for Uy, Initial residual = 0.529225, Final residual = 0.00873582, No Iterations 2
smoothSolver:  Solving for Uz, Initial residual = 0.481543, Final residual = 0.00724275, No Iterations 2
GAMG:  Solving for p, Initial residual = 0.554278, Final residual = 0.0266261, No Iterations 2
time step continuity errors : sum local = 1.60655e-06, global = -1.0713e-06, cumulative = -1.23548e-06
smoothSolver:  Solving for omega, Initial residual = 0.00565589, Final residual = 7.51797e-05, No Iterations 2
smoothSolver:  Solving for k, Initial residual = 0.170251, Final residual = 0.00922111, No Iterations 1
ExecutionTime = 0.612871 s  ClockTime = 0 s

Time = 3s

smoothSolver:  Solving for Ux, Initial residual = 0.0493173, Final residual = 0.0039714, No Iterations 1
smoothSolver:  Solving for Uy, Initial residual = 0.458843, Final residual = 0.00754535, No Iterations 2
smoothSolver:  Solving for Uz, Initial residual = 0.421756, Final residual = 0.00696847, No Iterations 2
GAMG:  Solving for p, Initial residual = 0.150351, Final residual = 0.00745128, No Iterations 2
time step continuity errors : sum local = 2.20606e-06, global = -1.46745e-06, cumulative = -2.70293e-06
smoothSolver:  Solving for omega, Initial residual = 0.00794417, Final residual = 0.000746075, No Iterations 1
smoothSolver:  Solving for k, Initial residual = 0.0528718, Final residual = 0.00316979, No Iterations 1
ExecutionTime = 0.795347 s  ClockTime = 1 s

Time = 4s

smoothSolver:  Solving for Ux, Initial residual = 0.0362918, Final residual = 0.00275593, No Iterations 1
smoothSolver:  Solving for Uy, Initial residual = 0.341078, Final residual = 0.00566228, No Iterations 2
smoothSolver:  Solving for Uz, Initial residual = 0.309447, Final residual = 0.00521052, No Iterations 2
GAMG:  Solving for p, Initial residual = 0.0805288, Final residual = 0.00293039, No Iterations 2
time step continuity errors : sum local = 2.11828e-06, global = -1.23895e-06, cumulative = -3.94187e-06
smoothSolver:  Solving for omega, Initial residual = 0.0065137, Final residual = 0.000580343, No Iterations 1
smoothSolver:  Solving for k, Initial residual = 0.030889, Final residual = 0.00181661, No Iterations 1
ExecutionTime = 0.976056 s  ClockTime = 1 s

Time = 5s

smoothSolver:  Solving for Ux, Initial residual = 0.0421695, Final residual = 0.00272722, No Iterations 1
smoothSolver:  Solving for Uy, Initial residual = 0.259333, Final residual = 0.00436861, No Iterations 2
smoothSolver:  Solving for Uz, Initial residual = 0.232416, Final residual = 0.00394947, No Iterations 2
GAMG:  Solving for p, Initial residual = 0.104142, Final residual = 0.00316046, No Iterations 1
time step continuity errors : sum local = 3.97235e-06, global = -2.61768e-06, cumulative = -6.55955e-06
smoothSolver:  Solving for omega, Initial residual = 0.00537275, Final residual = 0.000448686, No Iterations 1
smoothSolver:  Solving for k, Initial residual = 0.0220745, Final residual = 0.00127882, No Iterations 1
ExecutionTime = 1.14369 s  ClockTime = 1 s

Time = 6s

smoothSolver:  Solving for Ux, Initial residual = 0.0369352, Final residual = 0.00195596, No Iterations 1
smoothSolver:  Solving for Uy, Initial residual = 0.182959, Final residual = 0.00307599, No Iterations 2
smoothSolver:  Solving for Uz, Initial residual = 0.160364, Final residual = 0.00271759, No Iterations 2
GAMG:  Solving for p, Initial residual = 0.169152, Final residual = 0.00443922, No Iterations 1
time step continuity errors : sum local = 6.87562e-06, global = -3.91251e-07, cumulative = -6.9508e-06
smoothSolver:  Solving for omega, Initial residual = 0.0046606, Final residual = 0.00036377, No Iterations 1
smoothSolver:  Solving for k, Initial residual = 0.0170418, Final residual = 0.000939072, No Iterations 1
ExecutionTime = 1.30535 s  ClockTime = 1 s

Time = 7s

smoothSolver:  Solving for Ux, Initial residual = 0.0319157, Final residual = 0.00151501, No Iterations 1
smoothSolver:  Solving for Uy, Initial residual = 0.140693, Final residual = 0.00236285, No Iterations 2
smoothSolver:  Solving for Uz, Initial residual = 0.119292, Final residual = 0.00200878, No Iterations 2
GAMG:  Solving for p, Initial residual = 0.250467, Final residual = 0.00567387, No Iterations 1
time step continuity errors : sum local = 9.89869e-06, global = 2.07681e-06, cumulative = -4.874e-06
smoothSolver:  Solving for omega, Initial residual = 0.00425338, Final residual = 0.000324342, No Iterations 1
smoothSolver:  Solving for k, Initial residual = 0.014306, Final residual = 0.000795266, No Iterations 1
ExecutionTime = 1.4706 s  ClockTime = 1 s

Time = 8s

smoothSolver:  Solving for Ux, Initial residual = 0.0291581, Final residual = 0.00129536, No Iterations 1
smoothSolver:  Solving for Uy, Initial residual = 0.115164, Final residual = 0.00192675, No Iterations 2
smoothSolver:  Solving for Uz, Initial residual = 0.0938516, Final residual = 0.00155173, No Iterations 2
GAMG:  Solving for p, Initial residual = 0.325298, Final residual = 0.00616649, No Iterations 1
time step continuity errors : sum local = 1.23624e-05, global = 4.14021e-06, cumulative = -7.3378e-07
smoothSolver:  Solving for omega, Initial residual = 0.00405397, Final residual = 0.000303726, No Iterations 1
smoothSolver:  Solving for k, Initial residual = 0.0131205, Final residual = 0.00077251, No Iterations 1
ExecutionTime = 1.62974 s  ClockTime = 1 s

Time = 9s

smoothSolver:  Solving for Ux, Initial residual = 0.0257164, Final residual = 0.00110841, No Iterations 1
smoothSolver:  Solving for Uy, Initial residual = 0.0996654, Final residual = 0.00164966, No Iterations 2
smoothSolver:  Solving for Uz, Initial residual = 0.0771829, Final residual = 0.00124803, No Iterations 2
GAMG:  Solving for p, Initial residual = 0.367605, Final residual = 0.0061869, No Iterations 1
time step continuity errors : sum local = 1.47017e-05, global = 5.28899e-06, cumulative = 4.55521e-06
smoothSolver:  Solving for omega, Initial residual = 0.00384088, Final residual = 0.000283592, No Iterations 1
smoothSolver:  Solving for k, Initial residual = 0.0129668, Final residual = 0.000826745, No Iterations 1
ExecutionTime = 1.78628 s  ClockTime = 2 s

Time = 10s

smoothSolver:  Solving for Ux, Initial residual = 0.0220681, Final residual = 0.000978181, No Iterations 1
smoothSolver:  Solving for Uy, Initial residual = 0.0902409, Final residual = 0.00147338, No Iterations 2
smoothSolver:  Solving for Uz, Initial residual = 0.0660368, Final residual = 0.00104804, No Iterations 2
GAMG:  Solving for p, Initial residual = 0.378872, Final residual = 0.00642558, No Iterations 1
time step continuity errors : sum local = 1.83404e-05, global = 4.75796e-06, cumulative = 9.31317e-06
smoothSolver:  Solving for omega, Initial residual = 0.00364788, Final residual = 0.000277086, No Iterations 1
smoothSolver:  Solving for k, Initial residual = 0.0131843, Final residual = 0.000929385, No Iterations 1
ExecutionTime = 1.92863 s  ClockTime = 2 s

Time = 11s

smoothSolver:  Solving for Ux, Initial residual = 0.0185923, Final residual = 0.000932101, No Iterations 1
smoothSolver:  Solving for Uy, Initial residual = 0.0845581, Final residual = 0.00136389, No Iterations 2
smoothSolver:  Solving for Uz, Initial residual = 0.0595009, Final residual = 0.000922542, No Iterations 2
GAMG:  Solving for p, Initial residual = 0.365658, Final residual = 0.00737237, No Iterations 1
time step continuity errors : sum local = 2.48468e-05, global = 1.51095e-06, cumulative = 1.08241e-05
smoothSolver:  Solving for omega, Initial residual = 0.00361585, Final residual = 0.000291335, No Iterations 1
smoothSolver:  Solving for k, Initial residual = 0.0136738, Final residual = 0.00109494, No Iterations 1
ExecutionTime = 2.07996 s  ClockTime = 2 s

Time = 12s

smoothSolver:  Solving for Ux, Initial residual = 0.0144477, Final residual = 0.000869159, No Iterations 1
smoothSolver:  Solving for Uy, Initial residual = 0.081299, Final residual = 0.00129561, No Iterations 2
smoothSolver:  Solving for Uz, Initial residual = 0.0618239, Final residual = 0.000856382, No Iterations 2
GAMG:  Solving for p, Initial residual = 0.317521, Final residual = 0.00715753, No Iterations 1
time step continuity errors : sum local = 2.74086e-05, global = -3.25148e-06, cumulative = 7.57265e-06
smoothSolver:  Solving for omega, Initial residual = 0.0037061, Final residual = 0.000308286, No Iterations 1
smoothSolver:  Solving for k, Initial residual = 0.0144099, Final residual = 0.00126976, No Iterations 1
ExecutionTime = 2.22914 s  ClockTime = 2 s

Time = 13s

smoothSolver:  Solving for Ux, Initial residual = 0.0113237, Final residual = 0.000788837, No Iterations 1
smoothSolver:  Solving for Uy, Initial residual = 0.0773967, Final residual = 0.0012235, No Iterations 2
smoothSolver:  Solving for Uz, Initial residual = 0.0573081, Final residual = 0.000800213, No Iterations 2
GAMG:  Solving for p, Initial residual = 0.283159, Final residual = 0.0063274, No Iterations 1
time step continuity errors : sum local = 2.7022e-05, global = -7.85427e-06, cumulative = -2.81626e-07
smoothSolver:  Solving for omega, Initial residual = 0.00373428, Final residual = 0.000317083, No Iterations 1
smoothSolver:  Solving for k, Initial residual = 0.0152939, Final residual = 0.00142037, No Iterations 1
ExecutionTime = 2.37533 s  ClockTime = 2 s

Time = 14s

smoothSolver:  Solving for Ux, Initial residual = 0.00945676, Final residual = 0.000700859, No Iterations 1
smoothSolver:  Solving for Uy, Initial residual = 0.0732703, Final residual = 0.00115227, No Iterations 2
smoothSolver:  Solving for Uz, Initial residual = 0.0552207, Final residual = 0.000767701, No Iterations 2
GAMG:  Solving for p, Initial residual = 0.251558, Final residual = 0.00598693, No Iterations 1
time step continuity errors : sum local = 2.7871e-05, global = -9.67061e-06, cumulative = -9.95224e-06
smoothSolver:  Solving for omega, Initial residual = 0.00382232, Final residual = 0.000336049, No Iterations 1
smoothSolver:  Solving for k, Initial residual = 0.0164475, Final residual = 0.00156326, No Iterations 1
ExecutionTime = 2.51947 s  ClockTime = 2 s

Time = 15s

smoothSolver:  Solving for Ux, Initial residual = 0.00817599, Final residual = 0.000640113, No Iterations 1
smoothSolver:  Solving for Uy, Initial residual = 0.0688492, Final residual = 0.00108136, No Iterations 2
smoothSolver:  Solving for Uz, Initial residual = 0.05141, Final residual = 0.000709255, No Iterations 2
GAMG:  Solving for p, Initial residual = 0.234393, Final residual = 0.00609243, No Iterations 1
time step continuity errors : sum local = 3.07795e-05, global = -9.68454e-06, cumulative = -1.96368e-05
smoothSolver:  Solving for omega, Initial residual = 0.0040954, Final residual = 0.000373213, No Iterations 1
smoothSolver:  Solving for k, Initial residual = 0.0176767, Final residual = 0.00171848, No Iterations 1
ExecutionTime = 2.65762 s  ClockTime = 3 s

Time = 16s

smoothSolver:  Solving for Ux, Initial residual = 0.00729998, Final residual = 0.00059925, No Iterations 1
smoothSolver:  Solving for Uy, Initial residual = 0.065567, Final residual = 0.00102686, No Iterations 2
smoothSolver:  Solving for Uz, Initial residual = 0.0481317, Final residual = 0.00067214, No Iterations 2
GAMG:  Solving for p, Initial residual = 0.203169, Final residual = 0.00548266, No Iterations 1
time step continuity errors : sum local = 2.94447e-05, global = -9.92828e-06, cumulative = -2.95651e-05
smoothSolver:  Solving for omega, Initial residual = 0.0044216, Final residual = 0.000410084, No Iterations 1
smoothSolver:  Solving for k, Initial residual = 0.0190025, Final residual = 0.00188312, No Iterations 1
ExecutionTime = 2.80251 s  ClockTime = 3 s

Time = 17s

smoothSolver:  Solving for Ux, Initial residual = 0.00668985, Final residual = 0.000568318, No Iterations 1
smoothSolver:  Solving for Uy, Initial residual = 0.0630948, Final residual = 0.000985833, No Iterations 2
smoothSolver:  Solving for Uz, Initial residual = 0.0460346, Final residual = 0.000644327, No Iterations 2
GAMG:  Solving for p, Initial residual = 0.183141, Final residual = 0.00516483, No Iterations 1
time step continuity errors : sum local = 2.9165e-05, global = -1.05472e-05, cumulative = -4.01123e-05
smoothSolver:  Solving for omega, Initial residual = 0.00476608, Final residual = 0.000450623, No Iterations 1
smoothSolver:  Solving for k, Initial residual = 0.0204996, Final residual = 0.000222922, No Iterations 2
ExecutionTime = 2.95196 s  ClockTime = 3 s

Time = 18s

smoothSolver:  Solving for Ux, Initial residual = 0.00632246, Final residual = 0.000554583, No Iterations 1
smoothSolver:  Solving for Uy, Initial residual = 0.0607427, Final residual = 0.000952842, No Iterations 2
smoothSolver:  Solving for Uz, Initial residual = 0.0434261, Final residual = 0.000618235, No Iterations 2
GAMG:  Solving for p, Initial residual = 0.176244, Final residual = 0.00526615, No Iterations 1
time step continuity errors : sum local = 3.09313e-05, global = -1.25064e-05, cumulative = -5.26186e-05
smoothSolver:  Solving for omega, Initial residual = 0.00534157, Final residual = 0.000521927, No Iterations 1
smoothSolver:  Solving for k, Initial residual = 0.0219835, Final residual = 0.00024785, No Iterations 2
ExecutionTime = 3.09904 s  ClockTime = 3 s

Time = 19s

smoothSolver:  Solving for Ux, Initial residual = 0.00605008, Final residual = 0.000545587, No Iterations 1
smoothSolver:  Solving for Uy, Initial residual = 0.0588248, Final residual = 0.000927973, No Iterations 2
smoothSolver:  Solving for Uz, Initial residual = 0.0414023, Final residual = 0.000598158, No Iterations 2
GAMG:  Solving for p, Initial residual = 0.165112, Final residual = 0.00575317, No Iterations 1
time step continuity errors : sum local = 3.47681e-05, global = -1.64805e-05, cumulative = -6.90991e-05
smoothSolver:  Solving for omega, Initial residual = 0.00608861, Final residual = 0.000607188, No Iterations 1
smoothSolver:  Solving for k, Initial residual = 0.0235888, Final residual = 0.000275172, No Iterations 2
ExecutionTime = 3.24444 s  ClockTime = 3 s

Time = 20s

smoothSolver:  Solving for Ux, Initial residual = 0.00585137, Final residual = 0.000538838, No Iterations 1
smoothSolver:  Solving for Uy, Initial residual = 0.0572899, Final residual = 0.000908172, No Iterations 2
smoothSolver:  Solving for Uz, Initial residual = 0.0401445, Final residual = 0.00058601, No Iterations 2
GAMG:  Solving for p, Initial residual = 0.155933, Final residual = 0.00674012, No Iterations 1
time step continuity errors : sum local = 4.19251e-05, global = -2.18003e-05, cumulative = -9.08994e-05
smoothSolver:  Solving for omega, Initial residual = 0.00689479, Final residual = 7.63855e-05, No Iterations 2
smoothSolver:  Solving for k, Initial residual = 0.0257054, Final residual = 0.000307944, No Iterations 2
ExecutionTime = 3.39068 s  ClockTime = 3 s

Time = 21s

smoothSolver:  Solving for Ux, Initial residual = 0.00566351, Final residual = 0.000531147, No Iterations 1
smoothSolver:  Solving for Uy, Initial residual = 0.0560361, Final residual = 0.000892964, No Iterations 2
smoothSolver:  Solving for Uz, Initial residual = 0.039389, Final residual = 0.000578485, No Iterations 2
GAMG:  Solving for p, Initial residual = 0.146408, Final residual = 0.00713534, No Iterations 1
time step continuity errors : sum local = 4.55274e-05, global = -2.58699e-05, cumulative = -0.000116769
smoothSolver:  Solving for omega, Initial residual = 0.00787611, Final residual = 8.94211e-05, No Iterations 2
smoothSolver:  Solving for k, Initial residual = 0.0281282, Final residual = 0.000343618, No Iterations 2
ExecutionTime = 3.5408 s  ClockTime = 3 s

Time = 22s

smoothSolver:  Solving for Ux, Initial residual = 0.00553224, Final residual = 0.000528334, No Iterations 1
smoothSolver:  Solving for Uy, Initial residual = 0.0549462, Final residual = 0.00088032, No Iterations 2
smoothSolver:  Solving for Uz, Initial residual = 0.0388894, Final residual = 0.000574502, No Iterations 2
GAMG:  Solving for p, Initial residual = 0.134025, Final residual = 0.00783134, No Iterations 1
time step continuity errors : sum local = 5.09555e-05, global = -2.94252e-05, cumulative = -0.000146195
smoothSolver:  Solving for omega, Initial residual = 0.0091363, Final residual = 0.000106505, No Iterations 2
smoothSolver:  Solving for k, Initial residual = 0.0305647, Final residual = 0.000380579, No Iterations 2
ExecutionTime = 3.6837 s  ClockTime = 4 s

Time = 23s

smoothSolver:  Solving for Ux, Initial residual = 0.00544399, Final residual = 0.000527976, No Iterations 1
smoothSolver:  Solving for Uy, Initial residual = 0.0541392, Final residual = 0.000870239, No Iterations 2
smoothSolver:  Solving for Uz, Initial residual = 0.0388684, Final residual = 0.000577237, No Iterations 2
GAMG:  Solving for p, Initial residual = 0.126932, Final residual = 0.00831104, No Iterations 1
time step continuity errors : sum local = 5.5094e-05, global = -3.35442e-05, cumulative = -0.000179739
smoothSolver:  Solving for omega, Initial residual = 0.0101898, Final residual = 0.000119914, No Iterations 2
smoothSolver:  Solving for k, Initial residual = 0.0283908, Final residual = 0.000359458, No Iterations 2
ExecutionTime = 3.8301 s  ClockTime = 4 s

Time = 24s

smoothSolver:  Solving for Ux, Initial residual = 0.00527474, Final residual = 0.000519535, No Iterations 1
smoothSolver:  Solving for Uy, Initial residual = 0.0534805, Final residual = 0.0008625, No Iterations 2
smoothSolver:  Solving for Uz, Initial residual = 0.0393848, Final residual = 0.000587224, No Iterations 2
GAMG:  Solving for p, Initial residual = 0.121829, Final residual = 0.00778837, No Iterations 1
time step continuity errors : sum local = 5.26008e-05, global = -3.42689e-05, cumulative = -0.000214008
smoothSolver:  Solving for omega, Initial residual = 0.00972709, Final residual = 0.00011403, No Iterations 2
smoothSolver:  Solving for k, Initial residual = 0.0228127, Final residual = 0.000289064, No Iterations 2
ExecutionTime = 3.97168 s  ClockTime = 4 s

Time = 25s

smoothSolver:  Solving for Ux, Initial residual = 0.00506184, Final residual = 0.000504979, No Iterations 1
smoothSolver:  Solving for Uy, Initial residual = 0.0525686, Final residual = 0.000851138, No Iterations 2
smoothSolver:  Solving for Uz, Initial residual = 0.0400389, Final residual = 0.000601378, No Iterations 2
GAMG:  Solving for p, Initial residual = 0.118795, Final residual = 0.00788349, No Iterations 1
time step continuity errors : sum local = 5.43025e-05, global = -3.12331e-05, cumulative = -0.000245241
smoothSolver:  Solving for omega, Initial residual = 0.00882729, Final residual = 0.000102401, No Iterations 2
smoothSolver:  Solving for k, Initial residual = 0.0185845, Final residual = 0.000234227, No Iterations 2
ExecutionTime = 4.10825 s  ClockTime = 4 s

Time = 26s

smoothSolver:  Solving for Ux, Initial residual = 0.00484494, Final residual = 5.32224e-05, No Iterations 2
smoothSolver:  Solving for Uy, Initial residual = 0.0514439, Final residual = 0.000836728, No Iterations 2
smoothSolver:  Solving for Uz, Initial residual = 0.040434, Final residual = 0.000613621, No Iterations 2
GAMG:  Solving for p, Initial residual = 0.118914, Final residual = 0.00830928, No Iterations 1
time step continuity errors : sum local = 5.83546e-05, global = -2.66407e-05, cumulative = -0.000271881
smoothSolver:  Solving for omega, Initial residual = 0.00794108, Final residual = 9.09624e-05, No Iterations 2
smoothSolver:  Solving for k, Initial residual = 0.0154332, Final residual = 0.000193117, No Iterations 2
ExecutionTime = 4.24927 s  ClockTime = 4 s

Time = 27s

smoothSolver:  Solving for Ux, Initial residual = 0.00461497, Final residual = 5.1644e-05, No Iterations 2
smoothSolver:  Solving for Uy, Initial residual = 0.0499739, Final residual = 0.000817658, No Iterations 2
smoothSolver:  Solving for Uz, Initial residual = 0.0406824, Final residual = 0.000623091, No Iterations 2
GAMG:  Solving for p, Initial residual = 0.117, Final residual = 0.00841619, No Iterations 1
time step continuity errors : sum local = 6.03409e-05, global = -1.89162e-05, cumulative = -0.000290798
smoothSolver:  Solving for omega, Initial residual = 0.00709363, Final residual = 8.04122e-05, No Iterations 2
smoothSolver:  Solving for k, Initial residual = 0.0130257, Final residual = 0.000161869, No Iterations 2
ExecutionTime = 4.39413 s  ClockTime = 4 s

Time = 28s

smoothSolver:  Solving for Ux, Initial residual = 0.00439914, Final residual = 4.99944e-05, No Iterations 2
smoothSolver:  Solving for Uy, Initial residual = 0.0485716, Final residual = 0.000797761, No Iterations 2
smoothSolver:  Solving for Uz, Initial residual = 0.0407428, Final residual = 0.000630167, No Iterations 2
GAMG:  Solving for p, Initial residual = 0.114173, Final residual = 0.00821408, No Iterations 1
time step continuity errors : sum local = 6.00062e-05, global = -9.83789e-06, cumulative = -0.000300635
smoothSolver:  Solving for omega, Initial residual = 0.00632615, Final residual = 7.06529e-05, No Iterations 2
smoothSolver:  Solving for k, Initial residual = 0.0111783, Final residual = 0.000137873, No Iterations 2
ExecutionTime = 4.53697 s  ClockTime = 4 s

Time = 29s

smoothSolver:  Solving for Ux, Initial residual = 0.0041969, Final residual = 4.83453e-05, No Iterations 2
smoothSolver:  Solving for Uy, Initial residual = 0.047178, Final residual = 0.000777029, No Iterations 2
smoothSolver:  Solving for Uz, Initial residual = 0.0404209, Final residual = 0.000630446, No Iterations 2
GAMG:  Solving for p, Initial residual = 0.110408, Final residual = 0.00779482, No Iterations 1
time step continuity errors : sum local = 5.78784e-05, global = -8.33278e-07, cumulative = -0.000301469
smoothSolver:  Solving for omega, Initial residual = 0.00563018, Final residual = 6.19661e-05, No Iterations 2
smoothSolver:  Solving for k, Initial residual = 0.00969545, Final residual = 0.000118744, No Iterations 2
ExecutionTime = 4.68056 s  ClockTime = 5 s

Time = 30s

smoothSolver:  Solving for Ux, Initial residual = 0.00400903, Final residual = 4.67302e-05, No Iterations 2
smoothSolver:  Solving for Uy, Initial residual = 0.045655, Final residual = 0.000754668, No Iterations 2
smoothSolver:  Solving for Uz, Initial residual = 0.0396098, Final residual = 0.000624302, No Iterations 2
GAMG:  Solving for p, Initial residual = 0.104977, Final residual = 0.0073303, No Iterations 1
time step continuity errors : sum local = 5.52189e-05, global = 7.24538e-06, cumulative = -0.000294223
smoothSolver:  Solving for omega, Initial residual = 0.00499553, Final residual = 5.41569e-05, No Iterations 2
smoothSolver:  Solving for k, Initial residual = 0.00849137, Final residual = 0.000103279, No Iterations 2
ExecutionTime = 4.82094 s  ClockTime = 5 s

Time = 31s

smoothSolver:  Solving for Ux, Initial residual = 0.00383396, Final residual = 4.51643e-05, No Iterations 2
smoothSolver:  Solving for Uy, Initial residual = 0.0439332, Final residual = 0.000729, No Iterations 2
smoothSolver:  Solving for Uz, Initial residual = 0.0385485, Final residual = 0.000612366, No Iterations 2
GAMG:  Solving for p, Initial residual = 0.100687, Final residual = 0.0070026, No Iterations 1
time step continuity errors : sum local = 5.33033e-05, global = 1.3703e-05, cumulative = -0.00028052
smoothSolver:  Solving for omega, Initial residual = 0.00444397, Final residual = 0.000441727, No Iterations 1
smoothSolver:  Solving for k, Initial residual = 0.00753017, Final residual = 9.10388e-05, No Iterations 2
ExecutionTime = 4.96439 s  ClockTime = 5 s

Time = 32s

smoothSolver:  Solving for Ux, Initial residual = 0.00367424, Final residual = 4.37095e-05, No Iterations 2
smoothSolver:  Solving for Uy, Initial residual = 0.0420617, Final residual = 0.000700625, No Iterations 2
smoothSolver:  Solving for Uz, Initial residual = 0.0375391, Final residual = 0.000596136, No Iterations 2
GAMG:  Solving for p, Initial residual = 0.0979465, Final residual = 0.00711286, No Iterations 1
time step continuity errors : sum local = 5.45194e-05, global = 1.778e-05, cumulative = -0.00026274
smoothSolver:  Solving for omega, Initial residual = 0.00405529, Final residual = 0.000398671, No Iterations 1
smoothSolver:  Solving for k, Initial residual = 0.00674128, Final residual = 8.11386e-05, No Iterations 2
ExecutionTime = 5.10987 s  ClockTime = 5 s

Time = 33s

smoothSolver:  Solving for Ux, Initial residual = 0.00352541, Final residual = 4.23138e-05, No Iterations 2
smoothSolver:  Solving for Uy, Initial residual = 0.0401967, Final residual = 0.000671748, No Iterations 2
smoothSolver:  Solving for Uz, Initial residual = 0.0364969, Final residual = 0.000580634, No Iterations 2
GAMG:  Solving for p, Initial residual = 0.0930018, Final residual = 0.00707467, No Iterations 1
time step continuity errors : sum local = 5.45294e-05, global = 1.97543e-05, cumulative = -0.000242986
smoothSolver:  Solving for omega, Initial residual = 0.00373316, Final residual = 0.000363317, No Iterations 1
smoothSolver:  Solving for k, Initial residual = 0.00606862, Final residual = 7.26973e-05, No Iterations 2
ExecutionTime = 5.25551 s  ClockTime = 5 s

Time = 34s

smoothSolver:  Solving for Ux, Initial residual = 0.00338797, Final residual = 4.09839e-05, No Iterations 2
smoothSolver:  Solving for Uy, Initial residual = 0.0383694, Final residual = 0.000642937, No Iterations 2
smoothSolver:  Solving for Uz, Initial residual = 0.0354695, Final residual = 0.000565667, No Iterations 2
GAMG:  Solving for p, Initial residual = 0.08781, Final residual = 0.00675538, No Iterations 1
time step continuity errors : sum local = 5.22369e-05, global = 2.07524e-05, cumulative = -0.000222234
smoothSolver:  Solving for omega, Initial residual = 0.00348797, Final residual = 0.000337374, No Iterations 1
smoothSolver:  Solving for k, Initial residual = 0.00550331, Final residual = 6.5618e-05, No Iterations 2
ExecutionTime = 5.39865 s  ClockTime = 5 s

Time = 35s

smoothSolver:  Solving for Ux, Initial residual = 0.00326194, Final residual = 3.9725e-05, No Iterations 2
smoothSolver:  Solving for Uy, Initial residual = 0.0366106, Final residual = 0.000614846, No Iterations 2
smoothSolver:  Solving for Uz, Initial residual = 0.0343977, Final residual = 0.000550723, No Iterations 2
GAMG:  Solving for p, Initial residual = 0.0835599, Final residual = 0.00633774, No Iterations 1
time step continuity errors : sum local = 4.90738e-05, global = 2.09099e-05, cumulative = -0.000201324
smoothSolver:  Solving for omega, Initial residual = 0.00331215, Final residual = 0.000318848, No Iterations 1
smoothSolver:  Solving for k, Initial residual = 0.0050316, Final residual = 5.97275e-05, No Iterations 2
ExecutionTime = 5.54359 s  ClockTime = 5 s

Time = 36s

smoothSolver:  Solving for Ux, Initial residual = 0.0031461, Final residual = 3.85438e-05, No Iterations 2
smoothSolver:  Solving for Uy, Initial residual = 0.0349423, Final residual = 0.000588012, No Iterations 2
smoothSolver:  Solving for Uz, Initial residual = 0.0332228, Final residual = 0.000534709, No Iterations 2
GAMG:  Solving for p, Initial residual = 0.0801328, Final residual = 0.00597889, No Iterations 1
time step continuity errors : sum local = 4.62913e-05, global = 2.05904e-05, cumulative = -0.000180733
smoothSolver:  Solving for omega, Initial residual = 0.00318242, Final residual = 0.000305845, No Iterations 1
smoothSolver:  Solving for k, Initial residual = 0.00461367, Final residual = 5.45288e-05, No Iterations 2
ExecutionTime = 5.68279 s  ClockTime = 6 s

Time = 37s

smoothSolver:  Solving for Ux, Initial residual = 0.00303876, Final residual = 3.74331e-05, No Iterations 2
smoothSolver:  Solving for Uy, Initial residual = 0.0333729, Final residual = 0.000562691, No Iterations 2
smoothSolver:  Solving for Uz, Initial residual = 0.0319501, Final residual = 0.00051664, No Iterations 2
GAMG:  Solving for p, Initial residual = 0.0771667, Final residual = 0.00571808, No Iterations 1
time step continuity errors : sum local = 4.41718e-05, global = 2.04084e-05, cumulative = -0.000160325
smoothSolver:  Solving for omega, Initial residual = 0.00307973, Final residual = 0.000295854, No Iterations 1
smoothSolver:  Solving for k, Initial residual = 0.00425402, Final residual = 5.00491e-05, No Iterations 2
ExecutionTime = 5.8234 s  ClockTime = 6 s

Time = 38s

smoothSolver:  Solving for Ux, Initial residual = 0.00293989, Final residual = 3.63907e-05, No Iterations 2
smoothSolver:  Solving for Uy, Initial residual = 0.0318891, Final residual = 0.0005387, No Iterations 2
smoothSolver:  Solving for Uz, Initial residual = 0.0305624, Final residual = 0.000496501, No Iterations 2
GAMG:  Solving for p, Initial residual = 0.0755596, Final residual = 0.00557766, No Iterations 1
time step continuity errors : sum local = 4.29291e-05, global = 2.06829e-05, cumulative = -0.000139642
smoothSolver:  Solving for omega, Initial residual = 0.00300497, Final residual = 0.000288302, No Iterations 1
smoothSolver:  Solving for k, Initial residual = 0.00395573, Final residual = 4.62796e-05, No Iterations 2
ExecutionTime = 5.96432 s  ClockTime = 6 s

Time = 39s

smoothSolver:  Solving for Ux, Initial residual = 0.00284899, Final residual = 3.54109e-05, No Iterations 2
smoothSolver:  Solving for Uy, Initial residual = 0.0305015, Final residual = 0.000516273, No Iterations 2
smoothSolver:  Solving for Uz, Initial residual = 0.0292193, Final residual = 0.000476564, No Iterations 2
GAMG:  Solving for p, Initial residual = 0.0731587, Final residual = 0.00551018, No Iterations 1
time step continuity errors : sum local = 4.22143e-05, global = 2.13154e-05, cumulative = -0.000118327
smoothSolver:  Solving for omega, Initial residual = 0.00294583, Final residual = 0.000283396, No Iterations 1
smoothSolver:  Solving for k, Initial residual = 0.00369786, Final residual = 4.29031e-05, No Iterations 2
ExecutionTime = 6.10394 s  ClockTime = 6 s

Time = 40s

smoothSolver:  Solving for Ux, Initial residual = 0.00276393, Final residual = 3.44793e-05, No Iterations 2
smoothSolver:  Solving for Uy, Initial residual = 0.0292069, Final residual = 0.000495384, No Iterations 2
smoothSolver:  Solving for Uz, Initial residual = 0.0279473, Final residual = 0.000457238, No Iterations 2
GAMG:  Solving for p, Initial residual = 0.0719385, Final residual = 0.00538012, No Iterations 1
time step continuity errors : sum local = 4.09176e-05, global = 2.23978e-05, cumulative = -9.59289e-05
smoothSolver:  Solving for omega, Initial residual = 0.00290077, Final residual = 0.000279338, No Iterations 1
smoothSolver:  Solving for k, Initial residual = 0.00347946, Final residual = 3.99299e-05, No Iterations 2
ExecutionTime = 6.24299 s  ClockTime = 6 s

Time = 41s

smoothSolver:  Solving for Ux, Initial residual = 0.00268467, Final residual = 3.35927e-05, No Iterations 2
smoothSolver:  Solving for Uy, Initial residual = 0.0279831, Final residual = 0.000475708, No Iterations 2
smoothSolver:  Solving for Uz, Initial residual = 0.0267002, Final residual = 0.000438425, No Iterations 2
GAMG:  Solving for p, Initial residual = 0.0718874, Final residual = 0.00522016, No Iterations 1
time step continuity errors : sum local = 3.93852e-05, global = 2.36776e-05, cumulative = -7.22514e-05
smoothSolver:  Solving for omega, Initial residual = 0.00287167, Final residual = 0.000276303, No Iterations 1
smoothSolver:  Solving for k, Initial residual = 0.00329653, Final residual = 3.73996e-05, No Iterations 2
ExecutionTime = 6.38478 s  ClockTime = 6 s

Time = 42s

smoothSolver:  Solving for Ux, Initial residual = 0.00261033, Final residual = 3.27503e-05, No Iterations 2
smoothSolver:  Solving for Uy, Initial residual = 0.0268145, Final residual = 0.000457017, No Iterations 2
smoothSolver:  Solving for Uz, Initial residual = 0.0254995, Final residual = 0.000420129, No Iterations 2
GAMG:  Solving for p, Initial residual = 0.0718294, Final residual = 0.00508151, No Iterations 1
time step continuity errors : sum local = 3.79337e-05, global = 2.48385e-05, cumulative = -4.74129e-05
smoothSolver:  Solving for omega, Initial residual = 0.00283937, Final residual = 0.000274181, No Iterations 1
smoothSolver:  Solving for k, Initial residual = 0.00312698, Final residual = 3.50868e-05, No Iterations 2
ExecutionTime = 6.5256 s  ClockTime = 6 s

Time = 43s

smoothSolver:  Solving for Ux, Initial residual = 0.00254043, Final residual = 3.19445e-05, No Iterations 2
smoothSolver:  Solving for Uy, Initial residual = 0.0256874, Final residual = 0.000439077, No Iterations 2
smoothSolver:  Solving for Uz, Initial residual = 0.0243661, Final residual = 0.000402386, No Iterations 2
GAMG:  Solving for p, Initial residual = 0.0719679, Final residual = 0.0049798, No Iterations 1
time step continuity errors : sum local = 3.66844e-05, global = 2.58202e-05, cumulative = -2.15927e-05
smoothSolver:  Solving for omega, Initial residual = 0.00281155, Final residual = 0.00027244, No Iterations 1
smoothSolver:  Solving for k, Initial residual = 0.0029874, Final residual = 3.31953e-05, No Iterations 2
ExecutionTime = 6.66566 s  ClockTime = 7 s

Time = 44s

smoothSolver:  Solving for Ux, Initial residual = 0.0024752, Final residual = 3.11773e-05, No Iterations 2
smoothSolver:  Solving for Uy, Initial residual = 0.0245862, Final residual = 0.000421569, No Iterations 2
smoothSolver:  Solving for Uz, Initial residual = 0.023274, Final residual = 0.000385025, No Iterations 2
GAMG:  Solving for p, Initial residual = 0.0726479, Final residual = 0.00497912, No Iterations 1
time step continuity errors : sum local = 3.61391e-05, global = 2.66599e-05, cumulative = 5.0672e-06
smoothSolver:  Solving for omega, Initial residual = 0.00279458, Final residual = 0.000270746, No Iterations 1
smoothSolver:  Solving for k, Initial residual = 0.00287094, Final residual = 3.16134e-05, No Iterations 2
ExecutionTime = 6.80855 s  ClockTime = 7 s

Time = 45s

smoothSolver:  Solving for Ux, Initial residual = 0.00241349, Final residual = 3.04451e-05, No Iterations 2
smoothSolver:  Solving for Uy, Initial residual = 0.0235059, Final residual = 0.000404381, No Iterations 2
smoothSolver:  Solving for Uz, Initial residual = 0.0222178, Final residual = 0.000367998, No Iterations 2
GAMG:  Solving for p, Initial residual = 0.073135, Final residual = 0.0050224, No Iterations 1
time step continuity errors : sum local = 3.5778e-05, global = 2.72665e-05, cumulative = 3.23337e-05
smoothSolver:  Solving for omega, Initial residual = 0.00277757, Final residual = 0.000268928, No Iterations 1
smoothSolver:  Solving for k, Initial residual = 0.00277275, Final residual = 3.02538e-05, No Iterations 2
ExecutionTime = 6.94936 s  ClockTime = 7 s

Time = 46s

smoothSolver:  Solving for Ux, Initial residual = 0.00235545, Final residual = 2.97451e-05, No Iterations 2
smoothSolver:  Solving for Uy, Initial residual = 0.0224417, Final residual = 0.000387374, No Iterations 2
smoothSolver:  Solving for Uz, Initial residual = 0.0211955, Final residual = 0.000351083, No Iterations 2
GAMG:  Solving for p, Initial residual = 0.0743258, Final residual = 0.00511162, No Iterations 1
time step continuity errors : sum local = 3.56768e-05, global = 2.77025e-05, cumulative = 6.00361e-05
smoothSolver:  Solving for omega, Initial residual = 0.00276078, Final residual = 0.000268315, No Iterations 1
smoothSolver:  Solving for k, Initial residual = 0.0026909, Final residual = 2.91371e-05, No Iterations 2
ExecutionTime = 7.08445 s  ClockTime = 7 s

Time = 47s

smoothSolver:  Solving for Ux, Initial residual = 0.00230022, Final residual = 2.9079e-05, No Iterations 2
smoothSolver:  Solving for Uy, Initial residual = 0.0213909, Final residual = 0.000370486, No Iterations 2
smoothSolver:  Solving for Uz, Initial residual = 0.0201662, Final residual = 0.000334185, No Iterations 2
GAMG:  Solving for p, Initial residual = 0.0764971, Final residual = 0.00522949, No Iterations 1
time step continuity errors : sum local = 3.56319e-05, global = 2.77592e-05, cumulative = 8.77953e-05
smoothSolver:  Solving for omega, Initial residual = 0.00274085, Final residual = 0.000267283, No Iterations 1
smoothSolver:  Solving for k, Initial residual = 0.00261205, Final residual = 2.81595e-05, No Iterations 2
ExecutionTime = 7.22261 s  ClockTime = 7 s

Time = 48s

smoothSolver:  Solving for Ux, Initial residual = 0.0022477, Final residual = 2.84434e-05, No Iterations 2
smoothSolver:  Solving for Uy, Initial residual = 0.0203537, Final residual = 0.000353695, No Iterations 2
smoothSolver:  Solving for Uz, Initial residual = 0.0191435, Final residual = 0.000317365, No Iterations 2
GAMG:  Solving for p, Initial residual = 0.0788674, Final residual = 0.00532369, No Iterations 1
time step continuity errors : sum local = 3.52644e-05, global = 2.72061e-05, cumulative = 0.000115001
smoothSolver:  Solving for omega, Initial residual = 0.0027244, Final residual = 0.000265914, No Iterations 1
smoothSolver:  Solving for k, Initial residual = 0.00253859, Final residual = 2.73494e-05, No Iterations 2
ExecutionTime = 7.35453 s  ClockTime = 7 s

Time = 49s

smoothSolver:  Solving for Ux, Initial residual = 0.00219733, Final residual = 2.78322e-05, No Iterations 2
smoothSolver:  Solving for Uy, Initial residual = 0.0193332, Final residual = 0.000337027, No Iterations 2
smoothSolver:  Solving for Uz, Initial residual = 0.018152, Final residual = 0.000300689, No Iterations 2
GAMG:  Solving for p, Initial residual = 0.0815988, Final residual = 0.00539586, No Iterations 1
time step continuity errors : sum local = 3.46331e-05, global = 2.59462e-05, cumulative = 0.000140948
smoothSolver:  Solving for omega, Initial residual = 0.00270646, Final residual = 0.000263962, No Iterations 1
smoothSolver:  Solving for k, Initial residual = 0.00246786, Final residual = 2.65541e-05, No Iterations 2
ExecutionTime = 7.48972 s  ClockTime = 7 s

Time = 50s

smoothSolver:  Solving for Ux, Initial residual = 0.00214867, Final residual = 2.72451e-05, No Iterations 2
smoothSolver:  Solving for Uy, Initial residual = 0.0183308, Final residual = 0.000320462, No Iterations 2
smoothSolver:  Solving for Uz, Initial residual = 0.0171686, Final residual = 0.000284399, No Iterations 2
GAMG:  Solving for p, Initial residual = 0.0839992, Final residual = 0.00542556, No Iterations 1
time step continuity errors : sum local = 3.36177e-05, global = 2.40097e-05, cumulative = 0.000164957
smoothSolver:  Solving for omega, Initial residual = 0.00268261, Final residual = 0.000261276, No Iterations 1
smoothSolver:  Solving for k, Initial residual = 0.00239267, Final residual = 2.56912e-05, No Iterations 2
ExecutionTime = 7.63676 s  ClockTime = 8 s

Time = 51s

smoothSolver:  Solving for Ux, Initial residual = 0.0021011, Final residual = 2.66769e-05, No Iterations 2
smoothSolver:  Solving for Uy, Initial residual = 0.0173627, Final residual = 0.000304245, No Iterations 2
smoothSolver:  Solving for Uz, Initial residual = 0.0162114, Final residual = 0.000268558, No Iterations 2
GAMG:  Solving for p, Initial residual = 0.0872043, Final residual = 0.00535767, No Iterations 1
time step continuity errors : sum local = 3.19964e-05, global = 2.10873e-05, cumulative = 0.000186045
smoothSolver:  Solving for omega, Initial residual = 0.0026486, Final residual = 0.000258269, No Iterations 1
smoothSolver:  Solving for k, Initial residual = 0.00231133, Final residual = 0.00023111, No Iterations 1
ExecutionTime = 7.77352 s  ClockTime = 8 s

Time = 52s

smoothSolver:  Solving for Ux, Initial residual = 0.0020535, Final residual = 2.61152e-05, No Iterations 2
smoothSolver:  Solving for Uy, Initial residual = 0.0164449, Final residual = 0.000288658, No Iterations 2
smoothSolver:  Solving for Uz, Initial residual = 0.0153073, Final residual = 0.000253462, No Iterations 2
GAMG:  Solving for p, Initial residual = 0.0916166, Final residual = 0.00509916, No Iterations 1
time step continuity errors : sum local = 2.92554e-05, global = 1.65565e-05, cumulative = 0.000202601
smoothSolver:  Solving for omega, Initial residual = 0.00259429, Final residual = 0.000253588, No Iterations 1
smoothSolver:  Solving for k, Initial residual = 0.00223422, Final residual = 0.000223147, No Iterations 1
ExecutionTime = 7.90583 s  ClockTime = 8 s

Time = 53s

smoothSolver:  Solving for Ux, Initial residual = 0.00200752, Final residual = 2.55765e-05, No Iterations 2
smoothSolver:  Solving for Uy, Initial residual = 0.0155878, Final residual = 0.00027389, No Iterations 2
smoothSolver:  Solving for Uz, Initial residual = 0.0144665, Final residual = 0.000239325, No Iterations 2
GAMG:  Solving for p, Initial residual = 0.0956269, Final residual = 0.00477664, No Iterations 1
time step continuity errors : sum local = 2.62548e-05, global = 1.10533e-05, cumulative = 0.000213654
smoothSolver:  Solving for omega, Initial residual = 0.00254058, Final residual = 0.000248739, No Iterations 1
smoothSolver:  Solving for k, Initial residual = 0.00216168, Final residual = 0.000215535, No Iterations 1
ExecutionTime = 8.04031 s  ClockTime = 8 s

Time = 54s

smoothSolver:  Solving for Ux, Initial residual = 0.00196339, Final residual = 2.50599e-05, No Iterations 2
smoothSolver:  Solving for Uy, Initial residual = 0.014809, Final residual = 0.000260252, No Iterations 2
smoothSolver:  Solving for Uz, Initial residual = 0.0136856, Final residual = 0.000226187, No Iterations 2
GAMG:  Solving for p, Initial residual = 0.0983633, Final residual = 0.00461989, No Iterations 1
time step continuity errors : sum local = 2.42838e-05, global = 5.19632e-06, cumulative = 0.000218851
smoothSolver:  Solving for omega, Initial residual = 0.00249141, Final residual = 0.000243961, No Iterations 1
smoothSolver:  Solving for k, Initial residual = 0.00209128, Final residual = 0.000208499, No Iterations 1
ExecutionTime = 8.17093 s  ClockTime = 8 s

Time = 55s

smoothSolver:  Solving for Ux, Initial residual = 0.00192097, Final residual = 2.45644e-05, No Iterations 2
smoothSolver:  Solving for Uy, Initial residual = 0.014119, Final residual = 0.000247891, No Iterations 2
smoothSolver:  Solving for Uz, Initial residual = 0.0129507, Final residual = 0.000214209, No Iterations 2
GAMG:  Solving for p, Initial residual = 0.101319, Final residual = 0.00474419, No Iterations 1
time step continuity errors : sum local = 2.38004e-05, global = -2.62845e-07, cumulative = 0.000218588
smoothSolver:  Solving for omega, Initial residual = 0.00244438, Final residual = 0.000239339, No Iterations 1
smoothSolver:  Solving for k, Initial residual = 0.0020235, Final residual = 0.000201935, No Iterations 1
ExecutionTime = 8.3033 s  ClockTime = 8 s

Time = 56s

smoothSolver:  Solving for Ux, Initial residual = 0.00188014, Final residual = 2.40864e-05, No Iterations 2
smoothSolver:  Solving for Uy, Initial residual = 0.0135114, Final residual = 0.000236887, No Iterations 2
smoothSolver:  Solving for Uz, Initial residual = 0.0122787, Final residual = 0.000203467, No Iterations 2
GAMG:  Solving for p, Initial residual = 0.103935, Final residual = 0.00501645, No Iterations 1
time step continuity errors : sum local = 2.39758e-05, global = -4.79251e-06, cumulative = 0.000213795
smoothSolver:  Solving for omega, Initial residual = 0.00239773, Final residual = 0.000234873, No Iterations 1
smoothSolver:  Solving for k, Initial residual = 0.00196066, Final residual = 0.000195791, No Iterations 1
ExecutionTime = 8.43221 s  ClockTime = 8 s

Time = 57s

smoothSolver:  Solving for Ux, Initial residual = 0.00184082, Final residual = 2.3627e-05, No Iterations 2
smoothSolver:  Solving for Uy, Initial residual = 0.0129687, Final residual = 0.000227072, No Iterations 2
smoothSolver:  Solving for Uz, Initial residual = 0.0116851, Final residual = 0.000193979, No Iterations 2
GAMG:  Solving for p, Initial residual = 0.10736, Final residual = 0.00529237, No Iterations 1
time step continuity errors : sum local = 2.40842e-05, global = -8.04989e-06, cumulative = 0.000205746
smoothSolver:  Solving for omega, Initial residual = 0.00235306, Final residual = 0.000230884, No Iterations 1
smoothSolver:  Solving for k, Initial residual = 0.0019037, Final residual = 0.000190089, No Iterations 1
ExecutionTime = 8.56177 s  ClockTime = 8 s

Time = 58s

smoothSolver:  Solving for Ux, Initial residual = 0.00180307, Final residual = 2.31857e-05, No Iterations 2
smoothSolver:  Solving for Uy, Initial residual = 0.0124776, Final residual = 0.000218239, No Iterations 2
smoothSolver:  Solving for Uz, Initial residual = 0.0111436, Final residual = 0.000185441, No Iterations 2
GAMG:  Solving for p, Initial residual = 0.110754, Final residual = 0.00558014, No Iterations 1
time step continuity errors : sum local = 2.41934e-05, global = -9.79417e-06, cumulative = 0.000195951
smoothSolver:  Solving for omega, Initial residual = 0.00230942, Final residual = 0.000227437, No Iterations 1
smoothSolver:  Solving for k, Initial residual = 0.00185022, Final residual = 0.00018487, No Iterations 1
ExecutionTime = 8.69137 s  ClockTime = 9 s

Time = 59s

smoothSolver:  Solving for Ux, Initial residual = 0.00176695, Final residual = 2.27608e-05, No Iterations 2
smoothSolver:  Solving for Uy, Initial residual = 0.0120272, Final residual = 0.000210142, No Iterations 2
smoothSolver:  Solving for Uz, Initial residual = 0.0106445, Final residual = 0.000177737, No Iterations 2
GAMG:  Solving for p, Initial residual = 0.112601, Final residual = 0.00572416, No Iterations 1
time step continuity errors : sum local = 2.36347e-05, global = -1.01584e-05, cumulative = 0.000185793
smoothSolver:  Solving for omega, Initial residual = 0.00226763, Final residual = 0.000224182, No Iterations 1
smoothSolver:  Solving for k, Initial residual = 0.00179963, Final residual = 1.94149e-05, No Iterations 2
ExecutionTime = 8.82506 s  ClockTime = 9 s

Time = 60s

smoothSolver:  Solving for Ux, Initial residual = 0.00173184, Final residual = 2.23511e-05, No Iterations 2
smoothSolver:  Solving for Uy, Initial residual = 0.0115997, Final residual = 0.000202518, No Iterations 2
smoothSolver:  Solving for Uz, Initial residual = 0.0101868, Final residual = 0.000170849, No Iterations 2
GAMG:  Solving for p, Initial residual = 0.112417, Final residual = 0.00560202, No Iterations 1
time step continuity errors : sum local = 2.20405e-05, global = -9.14216e-06, cumulative = 0.000176651
smoothSolver:  Solving for omega, Initial residual = 0.00223875, Final residual = 0.000222019, No Iterations 1
smoothSolver:  Solving for k, Initial residual = 0.00174564, Final residual = 1.88576e-05, No Iterations 2
ExecutionTime = 8.95191 s  ClockTime = 9 s

Time = 61s

smoothSolver:  Solving for Ux, Initial residual = 0.00169829, Final residual = 2.19606e-05, No Iterations 2
smoothSolver:  Solving for Uy, Initial residual = 0.0111993, Final residual = 0.000195331, No Iterations 2
smoothSolver:  Solving for Uz, Initial residual = 0.00978633, Final residual = 0.000164535, No Iterations 2
GAMG:  Solving for p, Initial residual = 0.112899, Final residual = 0.00531962, No Iterations 1
time step continuity errors : sum local = 1.99689e-05, global = -7.55663e-06, cumulative = 0.000169094
smoothSolver:  Solving for omega, Initial residual = 0.00221282, Final residual = 0.000219896, No Iterations 1
smoothSolver:  Solving for k, Initial residual = 0.00169435, Final residual = 1.83548e-05, No Iterations 2
ExecutionTime = 9.08433 s  ClockTime = 9 s

Time = 62s

smoothSolver:  Solving for Ux, Initial residual = 0.00166619, Final residual = 2.15853e-05, No Iterations 2
smoothSolver:  Solving for Uy, Initial residual = 0.0108202, Final residual = 0.000188487, No Iterations 2
smoothSolver:  Solving for Uz, Initial residual = 0.00943324, Final residual = 0.000158756, No Iterations 2
GAMG:  Solving for p, Initial residual = 0.113401, Final residual = 0.00493411, No Iterations 1
time step continuity errors : sum local = 1.76555e-05, global = -5.90711e-06, cumulative = 0.000163187
smoothSolver:  Solving for omega, Initial residual = 0.00218874, Final residual = 0.000217833, No Iterations 1
smoothSolver:  Solving for k, Initial residual = 0.00164595, Final residual = 1.78865e-05, No Iterations 2
ExecutionTime = 9.21814 s  ClockTime = 9 s

Time = 63s

smoothSolver:  Solving for Ux, Initial residual = 0.00163541, Final residual = 2.12253e-05, No Iterations 2
smoothSolver:  Solving for Uy, Initial residual = 0.0104604, Final residual = 0.000181898, No Iterations 2
smoothSolver:  Solving for Uz, Initial residual = 0.00911919, Final residual = 0.000153459, No Iterations 2
GAMG:  Solving for p, Initial residual = 0.112684, Final residual = 0.00462059, No Iterations 1
time step continuity errors : sum local = 1.57759e-05, global = -4.48102e-06, cumulative = 0.000158706
smoothSolver:  Solving for omega, Initial residual = 0.00216586, Final residual = 0.000215875, No Iterations 1
smoothSolver:  Solving for k, Initial residual = 0.00160189, Final residual = 1.74525e-05, No Iterations 2
ExecutionTime = 9.35153 s  ClockTime = 9 s

Time = 64s

smoothSolver:  Solving for Ux, Initial residual = 0.00160586, Final residual = 2.08797e-05, No Iterations 2
smoothSolver:  Solving for Uy, Initial residual = 0.0101117, Final residual = 0.000175484, No Iterations 2
smoothSolver:  Solving for Uz, Initial residual = 0.0088352, Final residual = 0.000148592, No Iterations 2
GAMG:  Solving for p, Initial residual = 0.112692, Final residual = 0.00450642, No Iterations 1
time step continuity errors : sum local = 1.471e-05, global = -3.5921e-06, cumulative = 0.000155114
smoothSolver:  Solving for omega, Initial residual = 0.00214442, Final residual = 0.000214131, No Iterations 1
smoothSolver:  Solving for k, Initial residual = 0.00156109, Final residual = 1.70463e-05, No Iterations 2
ExecutionTime = 9.48783 s  ClockTime = 9 s

Time = 65s

smoothSolver:  Solving for Ux, Initial residual = 0.00157739, Final residual = 2.05458e-05, No Iterations 2
smoothSolver:  Solving for Uy, Initial residual = 0.00977474, Final residual = 0.000169234, No Iterations 2
smoothSolver:  Solving for Uz, Initial residual = 0.00856524, Final residual = 0.000144032, No Iterations 2
GAMG:  Solving for p, Initial residual = 0.111946, Final residual = 0.00458993, No Iterations 1
time step continuity errors : sum local = 1.43377e-05, global = -3.27076e-06, cumulative = 0.000151843
smoothSolver:  Solving for omega, Initial residual = 0.00212388, Final residual = 2.33275e-05, No Iterations 2
smoothSolver:  Solving for k, Initial residual = 0.00152208, Final residual = 1.66524e-05, No Iterations 2
ExecutionTime = 9.62018 s  ClockTime = 9 s

Time = 66s

smoothSolver:  Solving for Ux, Initial residual = 0.00155134, Final residual = 2.02397e-05, No Iterations 2
smoothSolver:  Solving for Uy, Initial residual = 0.00945016, Final residual = 0.000163151, No Iterations 2
smoothSolver:  Solving for Uz, Initial residual = 0.00832009, Final residual = 0.000139868, No Iterations 2
GAMG:  Solving for p, Initial residual = 0.109748, Final residual = 0.00485061, No Iterations 1
time step continuity errors : sum local = 1.4497e-05, global = -3.39298e-06, cumulative = 0.00014845
smoothSolver:  Solving for omega, Initial residual = 0.00208891, Final residual = 2.29687e-05, No Iterations 2
smoothSolver:  Solving for k, Initial residual = 0.0014854, Final residual = 1.62789e-05, No Iterations 2
ExecutionTime = 9.75455 s  ClockTime = 10 s

Time = 67s

smoothSolver:  Solving for Ux, Initial residual = 0.00152608, Final residual = 1.99434e-05, No Iterations 2
smoothSolver:  Solving for Uy, Initial residual = 0.00913828, Final residual = 0.000157293, No Iterations 2
smoothSolver:  Solving for Uz, Initial residual = 0.00810154, Final residual = 0.00013605, No Iterations 2
GAMG:  Solving for p, Initial residual = 0.109344, Final residual = 0.00518307, No Iterations 1
time step continuity errors : sum local = 1.4841e-05, global = -3.96184e-06, cumulative = 0.000144488
smoothSolver:  Solving for omega, Initial residual = 0.00205723, Final residual = 2.26791e-05, No Iterations 2
smoothSolver:  Solving for k, Initial residual = 0.00145186, Final residual = 1.59417e-05, No Iterations 2
ExecutionTime = 9.88883 s  ClockTime = 10 s

Time = 68s

smoothSolver:  Solving for Ux, Initial residual = 0.00150162, Final residual = 1.96564e-05, No Iterations 2
smoothSolver:  Solving for Uy, Initial residual = 0.00883796, Final residual = 0.000151641, No Iterations 2
smoothSolver:  Solving for Uz, Initial residual = 0.007898, Final residual = 0.000132558, No Iterations 2
GAMG:  Solving for p, Initial residual = 0.111056, Final residual = 0.00551943, No Iterations 1
time step continuity errors : sum local = 1.51832e-05, global = -4.77776e-06, cumulative = 0.000139711
smoothSolver:  Solving for omega, Initial residual = 0.00203092, Final residual = 2.24442e-05, No Iterations 2
smoothSolver:  Solving for k, Initial residual = 0.00142141, Final residual = 1.56383e-05, No Iterations 2
ExecutionTime = 10.0223 s  ClockTime = 10 s

Time = 69s

smoothSolver:  Solving for Ux, Initial residual = 0.00147795, Final residual = 1.93768e-05, No Iterations 2
smoothSolver:  Solving for Uy, Initial residual = 0.00854851, Final residual = 0.000146225, No Iterations 2
smoothSolver:  Solving for Uz, Initial residual = 0.00769033, Final residual = 0.000129291, No Iterations 2
GAMG:  Solving for p, Initial residual = 0.110294, Final residual = 0.00580002, No Iterations 1
time step continuity errors : sum local = 1.53613e-05, global = -5.42896e-06, cumulative = 0.000134282
smoothSolver:  Solving for omega, Initial residual = 0.00200809, Final residual = 2.22711e-05, No Iterations 2
smoothSolver:  Solving for k, Initial residual = 0.00139368, Final residual = 1.53655e-05, No Iterations 2
ExecutionTime = 10.1676 s  ClockTime = 10 s

Time = 70s

smoothSolver:  Solving for Ux, Initial residual = 0.00145511, Final residual = 1.91062e-05, No Iterations 2
smoothSolver:  Solving for Uy, Initial residual = 0.00827225, Final residual = 0.000141042, No Iterations 2
smoothSolver:  Solving for Uz, Initial residual = 0.00750255, Final residual = 0.000126176, No Iterations 2
GAMG:  Solving for p, Initial residual = 0.10887, Final residual = 0.00599698, No Iterations 1
time step continuity errors : sum local = 1.53155e-05, global = -5.87084e-06, cumulative = 0.000128411
smoothSolver:  Solving for omega, Initial residual = 0.0019871, Final residual = 2.21218e-05, No Iterations 2
smoothSolver:  Solving for k, Initial residual = 0.00136807, Final residual = 1.51209e-05, No Iterations 2
ExecutionTime = 10.3045 s  ClockTime = 10 s

Time = 71s

smoothSolver:  Solving for Ux, Initial residual = 0.00143305, Final residual = 1.88441e-05, No Iterations 2
smoothSolver:  Solving for Uy, Initial residual = 0.00800565, Final residual = 0.000136068, No Iterations 2
smoothSolver:  Solving for Uz, Initial residual = 0.00732324, Final residual = 0.000123218, No Iterations 2
GAMG:  Solving for p, Initial residual = 0.107771, Final residual = 0.00610637, No Iterations 1
time step continuity errors : sum local = 1.50745e-05, global = -6.06327e-06, cumulative = 0.000122348
smoothSolver:  Solving for omega, Initial residual = 0.00196746, Final residual = 2.19831e-05, No Iterations 2
smoothSolver:  Solving for k, Initial residual = 0.00134424, Final residual = 1.49041e-05, No Iterations 2
ExecutionTime = 10.4538 s  ClockTime = 10 s

Time = 72s

smoothSolver:  Solving for Ux, Initial residual = 0.00141181, Final residual = 1.85916e-05, No Iterations 2
smoothSolver:  Solving for Uy, Initial residual = 0.00775417, Final residual = 0.000131388, No Iterations 2
smoothSolver:  Solving for Uz, Initial residual = 0.00715063, Final residual = 0.000120284, No Iterations 2
GAMG:  Solving for p, Initial residual = 0.106931, Final residual = 0.00612724, No Iterations 1
time step continuity errors : sum local = 1.46801e-05, global = -6.01428e-06, cumulative = 0.000116333
smoothSolver:  Solving for omega, Initial residual = 0.00194812, Final residual = 2.18511e-05, No Iterations 2
smoothSolver:  Solving for k, Initial residual = 0.00132184, Final residual = 1.47086e-05, No Iterations 2
ExecutionTime = 10.5959 s  ClockTime = 10 s

Time = 73s

smoothSolver:  Solving for Ux, Initial residual = 0.00139137, Final residual = 1.83474e-05, No Iterations 2
smoothSolver:  Solving for Uy, Initial residual = 0.00751786, Final residual = 0.000127014, No Iterations 2
smoothSolver:  Solving for Uz, Initial residual = 0.00698026, Final residual = 0.000117357, No Iterations 2
GAMG:  Solving for p, Initial residual = 0.104478, Final residual = 0.00601157, No Iterations 1
time step continuity errors : sum local = 1.39991e-05, global = -5.65417e-06, cumulative = 0.000110679
smoothSolver:  Solving for omega, Initial residual = 0.001929, Final residual = 2.17189e-05, No Iterations 2
smoothSolver:  Solving for k, Initial residual = 0.00130093, Final residual = 1.45309e-05, No Iterations 2
ExecutionTime = 10.7328 s  ClockTime = 11 s

Time = 74s

smoothSolver:  Solving for Ux, Initial residual = 0.00137171, Final residual = 1.81125e-05, No Iterations 2
smoothSolver:  Solving for Uy, Initial residual = 0.00729926, Final residual = 0.00012297, No Iterations 2
smoothSolver:  Solving for Uz, Initial residual = 0.00681889, Final residual = 0.000114493, No Iterations 2
GAMG:  Solving for p, Initial residual = 0.102145, Final residual = 0.0057744, No Iterations 1
time step continuity errors : sum local = 1.31119e-05, global = -5.17448e-06, cumulative = 0.000105505
smoothSolver:  Solving for omega, Initial residual = 0.00190995, Final residual = 2.15914e-05, No Iterations 2
smoothSolver:  Solving for k, Initial residual = 0.00128118, Final residual = 1.43697e-05, No Iterations 2
ExecutionTime = 10.8712 s  ClockTime = 11 s

Time = 75s

smoothSolver:  Solving for Ux, Initial residual = 0.00135278, Final residual = 1.78869e-05, No Iterations 2
smoothSolver:  Solving for Uy, Initial residual = 0.00709846, Final residual = 0.000119249, No Iterations 2
smoothSolver:  Solving for Uz, Initial residual = 0.00666635, Final residual = 0.000111732, No Iterations 2
GAMG:  Solving for p, Initial residual = 0.10164, Final residual = 0.00544899, No Iterations 1
time step continuity errors : sum local = 1.20825e-05, global = -4.70898e-06, cumulative = 0.000100796
smoothSolver:  Solving for omega, Initial residual = 0.00189164, Final residual = 2.14687e-05, No Iterations 2
smoothSolver:  Solving for k, Initial residual = 0.00126253, Final residual = 1.42187e-05, No Iterations 2
ExecutionTime = 11.0019 s  ClockTime = 11 s

Time = 76s

smoothSolver:  Solving for Ux, Initial residual = 0.00133452, Final residual = 1.76701e-05, No Iterations 2
smoothSolver:  Solving for Uy, Initial residual = 0.00691404, Final residual = 0.000115847, No Iterations 2
smoothSolver:  Solving for Uz, Initial residual = 0.00651581, Final residual = 0.000109002, No Iterations 2
GAMG:  Solving for p, Initial residual = 0.100097, Final residual = 0.00515741, No Iterations 1
time step continuity errors : sum local = 1.1187e-05, global = -4.28532e-06, cumulative = 9.65103e-05
smoothSolver:  Solving for omega, Initial residual = 0.00187623, Final residual = 2.13545e-05, No Iterations 2
smoothSolver:  Solving for k, Initial residual = 0.00124454, Final residual = 1.40819e-05, No Iterations 2
ExecutionTime = 11.1381 s  ClockTime = 11 s

Time = 77s

smoothSolver:  Solving for Ux, Initial residual = 0.0013169, Final residual = 1.74613e-05, No Iterations 2
smoothSolver:  Solving for Uy, Initial residual = 0.00674454, Final residual = 0.000112721, No Iterations 2
smoothSolver:  Solving for Uz, Initial residual = 0.00636892, Final residual = 0.000106356, No Iterations 2
GAMG:  Solving for p, Initial residual = 0.0973059, Final residual = 0.00491434, No Iterations 1
time step continuity errors : sum local = 1.04377e-05, global = -3.93633e-06, cumulative = 9.2574e-05
smoothSolver:  Solving for omega, Initial residual = 0.00186149, Final residual = 2.125e-05, No Iterations 2
smoothSolver:  Solving for k, Initial residual = 0.00122719, Final residual = 1.39538e-05, No Iterations 2
ExecutionTime = 11.2752 s  ClockTime = 11 s

Time = 78s

smoothSolver:  Solving for Ux, Initial residual = 0.00129989, Final residual = 1.72606e-05, No Iterations 2
smoothSolver:  Solving for Uy, Initial residual = 0.00658763, Final residual = 0.000109818, No Iterations 2
smoothSolver:  Solving for Uz, Initial residual = 0.00623221, Final residual = 0.000103822, No Iterations 2
GAMG:  Solving for p, Initial residual = 0.0945533, Final residual = 0.004702, No Iterations 1
time step continuity errors : sum local = 9.77261e-06, global = -3.74308e-06, cumulative = 8.88309e-05
smoothSolver:  Solving for omega, Initial residual = 0.00184699, Final residual = 2.11513e-05, No Iterations 2
smoothSolver:  Solving for k, Initial residual = 0.00121042, Final residual = 1.38292e-05, No Iterations 2
ExecutionTime = 11.4084 s  ClockTime = 11 s

Time = 79s

smoothSolver:  Solving for Ux, Initial residual = 0.00128345, Final residual = 1.70673e-05, No Iterations 2
smoothSolver:  Solving for Uy, Initial residual = 0.00644124, Final residual = 0.000107113, No Iterations 2
smoothSolver:  Solving for Uz, Initial residual = 0.00610278, Final residual = 0.000101395, No Iterations 2
GAMG:  Solving for p, Initial residual = 0.0931541, Final residual = 0.00453826, No Iterations 1
time step continuity errors : sum local = 9.23429e-06, global = -3.75577e-06, cumulative = 8.50752e-05
smoothSolver:  Solving for omega, Initial residual = 0.0018329, Final residual = 2.10584e-05, No Iterations 2
smoothSolver:  Solving for k, Initial residual = 0.00119414, Final residual = 1.37088e-05, No Iterations 2
ExecutionTime = 11.5379 s  ClockTime = 11 s

Time = 80s

smoothSolver:  Solving for Ux, Initial residual = 0.00126753, Final residual = 1.68804e-05, No Iterations 2
smoothSolver:  Solving for Uy, Initial residual = 0.00630319, Final residual = 0.000104561, No Iterations 2
smoothSolver:  Solving for Uz, Initial residual = 0.00597581, Final residual = 9.90469e-05, No Iterations 2
GAMG:  Solving for p, Initial residual = 0.0923074, Final residual = 0.00446082, No Iterations 1
time step continuity errors : sum local = 8.897e-06, global = -3.93638e-06, cumulative = 8.11388e-05
smoothSolver:  Solving for omega, Initial residual = 0.00181858, Final residual = 2.09627e-05, No Iterations 2
smoothSolver:  Solving for k, Initial residual = 0.00117846, Final residual = 1.35904e-05, No Iterations 2
ExecutionTime = 11.6712 s  ClockTime = 12 s

Time = 81s

smoothSolver:  Solving for Ux, Initial residual = 0.00125209, Final residual = 1.66987e-05, No Iterations 2
smoothSolver:  Solving for Uy, Initial residual = 0.00617159, Final residual = 0.000102121, No Iterations 2
smoothSolver:  Solving for Uz, Initial residual = 0.0058569, Final residual = 9.67756e-05, No Iterations 2
GAMG:  Solving for p, Initial residual = 0.0916264, Final residual = 0.00448518, No Iterations 1
time step continuity errors : sum local = 8.77522e-06, global = -4.14824e-06, cumulative = 7.69906e-05
smoothSolver:  Solving for omega, Initial residual = 0.00180436, Final residual = 2.08696e-05, No Iterations 2
smoothSolver:  Solving for k, Initial residual = 0.00116349, Final residual = 1.34729e-05, No Iterations 2
ExecutionTime = 11.806 s  ClockTime = 12 s

Time = 82s

smoothSolver:  Solving for Ux, Initial residual = 0.00123708, Final residual = 1.65218e-05, No Iterations 2
smoothSolver:  Solving for Uy, Initial residual = 0.00604457, Final residual = 9.97668e-05, No Iterations 2
smoothSolver:  Solving for Uz, Initial residual = 0.00574135, Final residual = 9.45827e-05, No Iterations 2
GAMG:  Solving for p, Initial residual = 0.0908484, Final residual = 0.00452403, No Iterations 1
time step continuity errors : sum local = 8.68101e-06, global = -4.35741e-06, cumulative = 7.26331e-05
smoothSolver:  Solving for omega, Initial residual = 0.00179005, Final residual = 2.07737e-05, No Iterations 2
smoothSolver:  Solving for k, Initial residual = 0.00114901, Final residual = 1.33582e-05, No Iterations 2
ExecutionTime = 11.9334 s  ClockTime = 12 s

Time = 83s

smoothSolver:  Solving for Ux, Initial residual = 0.0012225, Final residual = 1.63493e-05, No Iterations 2
smoothSolver:  Solving for Uy, Initial residual = 0.00592207, Final residual = 9.74826e-05, No Iterations 2
smoothSolver:  Solving for Uz, Initial residual = 0.00562897, Final residual = 9.24996e-05, No Iterations 2
GAMG:  Solving for p, Initial residual = 0.0907261, Final residual = 0.00458849, No Iterations 1
time step continuity errors : sum local = 8.6369e-06, global = -4.524e-06, cumulative = 6.81091e-05
smoothSolver:  Solving for omega, Initial residual = 0.00177622, Final residual = 2.06748e-05, No Iterations 2
smoothSolver:  Solving for k, Initial residual = 0.00113527, Final residual = 1.32485e-05, No Iterations 2
ExecutionTime = 12.0604 s  ClockTime = 12 s

Time = 84s

smoothSolver:  Solving for Ux, Initial residual = 0.00120832, Final residual = 1.61807e-05, No Iterations 2
smoothSolver:  Solving for Uy, Initial residual = 0.00580416, Final residual = 9.52722e-05, No Iterations 2
smoothSolver:  Solving for Uz, Initial residual = 0.00551704, Final residual = 9.04975e-05, No Iterations 2
GAMG:  Solving for p, Initial residual = 0.089651, Final residual = 0.00471066, No Iterations 1
time step continuity errors : sum local = 8.69672e-06, global = -4.57141e-06, cumulative = 6.35377e-05
smoothSolver:  Solving for omega, Initial residual = 0.00176245, Final residual = 2.05765e-05, No Iterations 2
smoothSolver:  Solving for k, Initial residual = 0.00112211, Final residual = 1.3142e-05, No Iterations 2
ExecutionTime = 12.1929 s  ClockTime = 12 s

Time = 85s

smoothSolver:  Solving for Ux, Initial residual = 0.00119452, Final residual = 1.60162e-05, No Iterations 2
smoothSolver:  Solving for Uy, Initial residual = 0.00569069, Final residual = 9.31449e-05, No Iterations 2
smoothSolver:  Solving for Uz, Initial residual = 0.00541043, Final residual = 8.8575e-05, No Iterations 2
GAMG:  Solving for p, Initial residual = 0.0885771, Final residual = 0.00482786, No Iterations 1
time step continuity errors : sum local = 8.74765e-06, global = -4.50076e-06, cumulative = 5.9037e-05
smoothSolver:  Solving for omega, Initial residual = 0.00174954, Final residual = 2.04806e-05, No Iterations 2
smoothSolver:  Solving for k, Initial residual = 0.00110934, Final residual = 1.30379e-05, No Iterations 2
ExecutionTime = 12.3228 s  ClockTime = 12 s

Time = 86s

smoothSolver:  Solving for Ux, Initial residual = 0.00118108, Final residual = 1.58555e-05, No Iterations 2
smoothSolver:  Solving for Uy, Initial residual = 0.00558191, Final residual = 9.1115e-05, No Iterations 2
smoothSolver:  Solving for Uz, Initial residual = 0.00530354, Final residual = 8.67226e-05, No Iterations 2
GAMG:  Solving for p, Initial residual = 0.0867682, Final residual = 0.00488239, No Iterations 1
time step continuity errors : sum local = 8.68366e-06, global = -4.29505e-06, cumulative = 5.47419e-05
smoothSolver:  Solving for omega, Initial residual = 0.00173723, Final residual = 2.03892e-05, No Iterations 2
smoothSolver:  Solving for k, Initial residual = 0.00109697, Final residual = 1.29355e-05, No Iterations 2
ExecutionTime = 12.4547 s  ClockTime = 12 s

Time = 87s

smoothSolver:  Solving for Ux, Initial residual = 0.00116801, Final residual = 1.56986e-05, No Iterations 2
smoothSolver:  Solving for Uy, Initial residual = 0.00547837, Final residual = 8.91918e-05, No Iterations 2
smoothSolver:  Solving for Uz, Initial residual = 0.00520278, Final residual = 8.49475e-05, No Iterations 2
GAMG:  Solving for p, Initial residual = 0.0852585, Final residual = 0.00485358, No Iterations 1
time step continuity errors : sum local = 8.47577e-06, global = -4.0176e-06, cumulative = 5.07243e-05
smoothSolver:  Solving for omega, Initial residual = 0.00172494, Final residual = 2.03038e-05, No Iterations 2
smoothSolver:  Solving for k, Initial residual = 0.00108496, Final residual = 1.28338e-05, No Iterations 2
ExecutionTime = 12.5895 s  ClockTime = 12 s

Time = 88s

smoothSolver:  Solving for Ux, Initial residual = 0.00115528, Final residual = 1.55458e-05, No Iterations 2
smoothSolver:  Solving for Uy, Initial residual = 0.00538016, Final residual = 8.73701e-05, No Iterations 2
smoothSolver:  Solving for Uz, Initial residual = 0.0051061, Final residual = 8.32152e-05, No Iterations 2
GAMG:  Solving for p, Initial residual = 0.0841703, Final residual = 0.00472614, No Iterations 1
time step continuity errors : sum local = 8.10349e-06, global = -3.72482e-06, cumulative = 4.69995e-05
smoothSolver:  Solving for omega, Initial residual = 0.00171332, Final residual = 2.02213e-05, No Iterations 2
smoothSolver:  Solving for k, Initial residual = 0.00107325, Final residual = 1.27351e-05, No Iterations 2
ExecutionTime = 12.7177 s  ClockTime = 13 s

Time = 89s

smoothSolver:  Solving for Ux, Initial residual = 0.00114289, Final residual = 1.5397e-05, No Iterations 2
smoothSolver:  Solving for Uy, Initial residual = 0.00528743, Final residual = 8.56599e-05, No Iterations 2
smoothSolver:  Solving for Uz, Initial residual = 0.00501027, Final residual = 8.14853e-05, No Iterations 2
GAMG:  Solving for p, Initial residual = 0.0834901, Final residual = 0.00452892, No Iterations 1
time step continuity errors : sum local = 7.63584e-06, global = -3.45373e-06, cumulative = 4.35458e-05
smoothSolver:  Solving for omega, Initial residual = 0.00170167, Final residual = 2.01369e-05, No Iterations 2
smoothSolver:  Solving for k, Initial residual = 0.00106183, Final residual = 1.26388e-05, No Iterations 2
ExecutionTime = 12.8469 s  ClockTime = 13 s

Time = 90s

smoothSolver:  Solving for Ux, Initial residual = 0.00113082, Final residual = 1.52521e-05, No Iterations 2
smoothSolver:  Solving for Uy, Initial residual = 0.00520032, Final residual = 8.40556e-05, No Iterations 2
smoothSolver:  Solving for Uz, Initial residual = 0.00491447, Final residual = 7.97347e-05, No Iterations 2
GAMG:  Solving for p, Initial residual = 0.0828344, Final residual = 0.00435532, No Iterations 1
time step continuity errors : sum local = 7.22777e-06, global = -3.16636e-06, cumulative = 4.03794e-05
smoothSolver:  Solving for omega, Initial residual = 0.00168967, Final residual = 2.00513e-05, No Iterations 2
smoothSolver:  Solving for k, Initial residual = 0.00105079, Final residual = 1.25441e-05, No Iterations 2
ExecutionTime = 12.9758 s  ClockTime = 13 s

Time = 91s

smoothSolver:  Solving for Ux, Initial residual = 0.00111907, Final residual = 1.51111e-05, No Iterations 2
smoothSolver:  Solving for Uy, Initial residual = 0.00511886, Final residual = 8.25563e-05, No Iterations 2
smoothSolver:  Solving for Uz, Initial residual = 0.00482009, Final residual = 7.79879e-05, No Iterations 2
GAMG:  Solving for p, Initial residual = 0.0823618, Final residual = 0.00422643, No Iterations 1
time step continuity errors : sum local = 6.90519e-06, global = -2.93012e-06, cumulative = 3.74493e-05
smoothSolver:  Solving for omega, Initial residual = 0.00167801, Final residual = 1.99656e-05, No Iterations 2
smoothSolver:  Solving for k, Initial residual = 0.00104021, Final residual = 1.2451e-05, No Iterations 2
ExecutionTime = 13.1029 s  ClockTime = 13 s

Time = 92s

smoothSolver:  Solving for Ux, Initial residual = 0.00110763, Final residual = 1.49736e-05, No Iterations 2
smoothSolver:  Solving for Uy, Initial residual = 0.00504291, Final residual = 8.11618e-05, No Iterations 2
smoothSolver:  Solving for Uz, Initial residual = 0.00472592, Final residual = 7.62642e-05, No Iterations 2
GAMG:  Solving for p, Initial residual = 0.0818728, Final residual = 0.00412962, No Iterations 1
time step continuity errors : sum local = 6.63871e-06, global = -2.76165e-06, cumulative = 3.46876e-05
smoothSolver:  Solving for omega, Initial residual = 0.00166693, Final residual = 1.98798e-05, No Iterations 2
smoothSolver:  Solving for k, Initial residual = 0.00103004, Final residual = 1.23598e-05, No Iterations 2
ExecutionTime = 13.2388 s  ClockTime = 13 s

Time = 93s

smoothSolver:  Solving for Ux, Initial residual = 0.00109649, Final residual = 1.48399e-05, No Iterations 2
smoothSolver:  Solving for Uy, Initial residual = 0.00497206, Final residual = 7.9873e-05, No Iterations 2
smoothSolver:  Solving for Uz, Initial residual = 0.00463201, Final residual = 7.45738e-05, No Iterations 2
GAMG:  Solving for p, Initial residual = 0.0804475, Final residual = 0.00411263, No Iterations 1
time step continuity errors : sum local = 6.50372e-06, global = -2.63928e-06, cumulative = 3.20484e-05
smoothSolver:  Solving for omega, Initial residual = 0.00165551, Final residual = 1.97922e-05, No Iterations 2
smoothSolver:  Solving for k, Initial residual = 0.0010202, Final residual = 1.22714e-05, No Iterations 2
ExecutionTime = 13.3707 s  ClockTime = 13 s

Time = 94s

smoothSolver:  Solving for Ux, Initial residual = 0.00108563, Final residual = 1.47102e-05, No Iterations 2
smoothSolver:  Solving for Uy, Initial residual = 0.00490633, Final residual = 7.86864e-05, No Iterations 2
smoothSolver:  Solving for Uz, Initial residual = 0.00454218, Final residual = 7.29695e-05, No Iterations 2
GAMG:  Solving for p, Initial residual = 0.0796011, Final residual = 0.00413233, No Iterations 1
time step continuity errors : sum local = 6.43308e-06, global = -2.58182e-06, cumulative = 2.94665e-05
smoothSolver:  Solving for omega, Initial residual = 0.00164398, Final residual = 1.97046e-05, No Iterations 2
smoothSolver:  Solving for k, Initial residual = 0.00101064, Final residual = 1.21856e-05, No Iterations 2
ExecutionTime = 13.5024 s  ClockTime = 13 s

Time = 95s

smoothSolver:  Solving for Ux, Initial residual = 0.00107505, Final residual = 1.45838e-05, No Iterations 2
smoothSolver:  Solving for Uy, Initial residual = 0.00484547, Final residual = 7.75906e-05, No Iterations 2
smoothSolver:  Solving for Uz, Initial residual = 0.00445782, Final residual = 7.14793e-05, No Iterations 2
GAMG:  Solving for p, Initial residual = 0.0787084, Final residual = 0.00412922, No Iterations 1
time step continuity errors : sum local = 6.33449e-06, global = -2.59486e-06, cumulative = 2.68717e-05
smoothSolver:  Solving for omega, Initial residual = 0.00163279, Final residual = 1.96187e-05, No Iterations 2
smoothSolver:  Solving for k, Initial residual = 0.00100141, Final residual = 1.21023e-05, No Iterations 2
ExecutionTime = 13.6394 s  ClockTime = 14 s

Time = 96s

smoothSolver:  Solving for Ux, Initial residual = 0.00106473, Final residual = 1.44603e-05, No Iterations 2
smoothSolver:  Solving for Uy, Initial residual = 0.00478881, Final residual = 7.65812e-05, No Iterations 2
smoothSolver:  Solving for Uz, Initial residual = 0.00437877, Final residual = 7.01152e-05, No Iterations 2
GAMG:  Solving for p, Initial residual = 0.0767255, Final residual = 0.00409002, No Iterations 1
time step continuity errors : sum local = 6.18199e-06, global = -2.63752e-06, cumulative = 2.42342e-05
smoothSolver:  Solving for omega, Initial residual = 0.0016221, Final residual = 1.95343e-05, No Iterations 2
smoothSolver:  Solving for k, Initial residual = 0.000992418, Final residual = 1.20207e-05, No Iterations 2
ExecutionTime = 13.7768 s  ClockTime = 14 s

Time = 97s

smoothSolver:  Solving for Ux, Initial residual = 0.00105467, Final residual = 1.43399e-05, No Iterations 2
smoothSolver:  Solving for Uy, Initial residual = 0.0047363, Final residual = 7.56464e-05, No Iterations 2
smoothSolver:  Solving for Uz, Initial residual = 0.00430846, Final residual = 6.88819e-05, No Iterations 2
GAMG:  Solving for p, Initial residual = 0.0753958, Final residual = 0.00404273, No Iterations 1
time step continuity errors : sum local = 6.02428e-06, global = -2.69938e-06, cumulative = 2.15348e-05
smoothSolver:  Solving for omega, Initial residual = 0.00161138, Final residual = 1.9455e-05, No Iterations 2
smoothSolver:  Solving for k, Initial residual = 0.000983652, Final residual = 1.19405e-05, No Iterations 2
ExecutionTime = 13.9024 s  ClockTime = 14 s

Time = 98s

smoothSolver:  Solving for Ux, Initial residual = 0.00104484, Final residual = 1.42226e-05, No Iterations 2
smoothSolver:  Solving for Uy, Initial residual = 0.00468772, Final residual = 7.4792e-05, No Iterations 2
smoothSolver:  Solving for Uz, Initial residual = 0.00424435, Final residual = 6.77851e-05, No Iterations 2
[...]
smoothSolver:  Solving for Uz, Initial residual = 0.000612281, Final residual = 1.12766e-05, No Iterations 2
GAMG:  Solving for p, Initial residual = 0.00184142, Final residual = 0.000167191, No Iterations 1
time step continuity errors : sum local = 8.72781e-08, global = -1.02362e-08, cumulative = -1.87277e-05
smoothSolver:  Solving for omega, Initial residual = 0.000815646, Final residual = 1.34265e-05, No Iterations 2
smoothSolver:  Solving for k, Initial residual = 0.000221373, Final residual = 4.05767e-06, No Iterations 2
ExecutionTime = 133.629 s  ClockTime = 133 s

Time = 977s

smoothSolver:  Solving for Ux, Initial residual = 0.000258109, Final residual = 4.56907e-06, No Iterations 2
smoothSolver:  Solving for Uy, Initial residual = 0.000510967, Final residual = 9.34247e-06, No Iterations 2
smoothSolver:  Solving for Uz, Initial residual = 0.000610009, Final residual = 1.12344e-05, No Iterations 2
GAMG:  Solving for p, Initial residual = 0.00186518, Final residual = 0.00018597, No Iterations 1
time step continuity errors : sum local = 9.71281e-08, global = -1.08984e-08, cumulative = -1.87386e-05
smoothSolver:  Solving for omega, Initial residual = 0.000815874, Final residual = 1.34296e-05, No Iterations 2
smoothSolver:  Solving for k, Initial residual = 0.000221234, Final residual = 4.05538e-06, No Iterations 2
ExecutionTime = 133.763 s  ClockTime = 134 s

Time = 978s

smoothSolver:  Solving for Ux, Initial residual = 0.000257956, Final residual = 4.5668e-06, No Iterations 2
smoothSolver:  Solving for Uy, Initial residual = 0.000509616, Final residual = 9.31795e-06, No Iterations 2
smoothSolver:  Solving for Uz, Initial residual = 0.000607963, Final residual = 1.1196e-05, No Iterations 2
GAMG:  Solving for p, Initial residual = 0.00191355, Final residual = 6.71951e-05, No Iterations 2
time step continuity errors : sum local = 3.5112e-08, global = -6.43917e-09, cumulative = -1.8745e-05
smoothSolver:  Solving for omega, Initial residual = 0.0008161, Final residual = 1.34327e-05, No Iterations 2
smoothSolver:  Solving for k, Initial residual = 0.000221095, Final residual = 4.05309e-06, No Iterations 2
ExecutionTime = 133.91 s  ClockTime = 134 s

Time = 979s

smoothSolver:  Solving for Ux, Initial residual = 0.000257802, Final residual = 4.56455e-06, No Iterations 2
smoothSolver:  Solving for Uy, Initial residual = 0.000509346, Final residual = 9.31415e-06, No Iterations 2
smoothSolver:  Solving for Uz, Initial residual = 0.000607884, Final residual = 1.11953e-05, No Iterations 2
GAMG:  Solving for p, Initial residual = 0.00188293, Final residual = 6.18963e-05, No Iterations 2
time step continuity errors : sum local = 3.23651e-08, global = -6.21023e-09, cumulative = -1.87512e-05
smoothSolver:  Solving for omega, Initial residual = 0.000816325, Final residual = 1.34357e-05, No Iterations 2
smoothSolver:  Solving for k, Initial residual = 0.000220956, Final residual = 4.05082e-06, No Iterations 2
ExecutionTime = 134.055 s  ClockTime = 134 s

Time = 980s

smoothSolver:  Solving for Ux, Initial residual = 0.000257648, Final residual = 4.56229e-06, No Iterations 2
smoothSolver:  Solving for Uy, Initial residual = 0.000508931, Final residual = 9.30753e-06, No Iterations 2
smoothSolver:  Solving for Uz, Initial residual = 0.000607491, Final residual = 1.11887e-05, No Iterations 2
GAMG:  Solving for p, Initial residual = 0.00183804, Final residual = 0.000171612, No Iterations 1
time step continuity errors : sum local = 8.97944e-08, global = -1.04729e-08, cumulative = -1.87617e-05
smoothSolver:  Solving for omega, Initial residual = 0.00081655, Final residual = 1.34388e-05, No Iterations 2
smoothSolver:  Solving for k, Initial residual = 0.000220817, Final residual = 4.04854e-06, No Iterations 2
ExecutionTime = 134.184 s  ClockTime = 134 s

Time = 981s

smoothSolver:  Solving for Ux, Initial residual = 0.000257495, Final residual = 4.56004e-06, No Iterations 2
smoothSolver:  Solving for Uy, Initial residual = 0.000507531, Final residual = 9.28207e-06, No Iterations 2
smoothSolver:  Solving for Uz, Initial residual = 0.000605283, Final residual = 1.11476e-05, No Iterations 2
GAMG:  Solving for p, Initial residual = 0.00185864, Final residual = 5.6687e-05, No Iterations 2
time step continuity errors : sum local = 2.96757e-08, global = -5.79012e-09, cumulative = -1.87675e-05
smoothSolver:  Solving for omega, Initial residual = 0.000816772, Final residual = 1.34418e-05, No Iterations 2
smoothSolver:  Solving for k, Initial residual = 0.000220678, Final residual = 4.04627e-06, No Iterations 2
ExecutionTime = 134.321 s  ClockTime = 134 s

Time = 982s

smoothSolver:  Solving for Ux, Initial residual = 0.000257342, Final residual = 4.55779e-06, No Iterations 2
smoothSolver:  Solving for Uy, Initial residual = 0.000506952, Final residual = 9.27231e-06, No Iterations 2
smoothSolver:  Solving for Uz, Initial residual = 0.000604572, Final residual = 1.1135e-05, No Iterations 2
GAMG:  Solving for p, Initial residual = 0.00183925, Final residual = 0.000172391, No Iterations 1
time step continuity errors : sum local = 9.03046e-08, global = -9.7826e-09, cumulative = -1.87773e-05
smoothSolver:  Solving for omega, Initial residual = 0.000816993, Final residual = 1.34448e-05, No Iterations 2
smoothSolver:  Solving for k, Initial residual = 0.00022054, Final residual = 4.044e-06, No Iterations 2
ExecutionTime = 134.447 s  ClockTime = 134 s

Time = 983s

smoothSolver:  Solving for Ux, Initial residual = 0.000257189, Final residual = 4.55554e-06, No Iterations 2
smoothSolver:  Solving for Uy, Initial residual = 0.000505564, Final residual = 9.24704e-06, No Iterations 2
smoothSolver:  Solving for Uz, Initial residual = 0.000602385, Final residual = 1.10942e-05, No Iterations 2
GAMG:  Solving for p, Initial residual = 0.00187609, Final residual = 6.04819e-05, No Iterations 2
time step continuity errors : sum local = 3.16981e-08, global = -5.55909e-09, cumulative = -1.87828e-05
smoothSolver:  Solving for omega, Initial residual = 0.000817213, Final residual = 1.34478e-05, No Iterations 2
smoothSolver:  Solving for k, Initial residual = 0.000220402, Final residual = 4.04173e-06, No Iterations 2
ExecutionTime = 134.595 s  ClockTime = 134 s

Time = 984s

smoothSolver:  Solving for Ux, Initial residual = 0.000257037, Final residual = 4.5533e-06, No Iterations 2
smoothSolver:  Solving for Uy, Initial residual = 0.000505068, Final residual = 9.23895e-06, No Iterations 2
smoothSolver:  Solving for Uz, Initial residual = 0.00060186, Final residual = 1.10851e-05, No Iterations 2
GAMG:  Solving for p, Initial residual = 0.0018556, Final residual = 5.66801e-05, No Iterations 2
time step continuity errors : sum local = 2.97244e-08, global = -5.23923e-09, cumulative = -1.87881e-05
smoothSolver:  Solving for omega, Initial residual = 0.000817431, Final residual = 1.34507e-05, No Iterations 2
smoothSolver:  Solving for k, Initial residual = 0.000220264, Final residual = 4.03947e-06, No Iterations 2
ExecutionTime = 134.737 s  ClockTime = 135 s

Time = 985s

smoothSolver:  Solving for Ux, Initial residual = 0.000256884, Final residual = 4.55107e-06, No Iterations 2
smoothSolver:  Solving for Uy, Initial residual = 0.000504471, Final residual = 9.22891e-06, No Iterations 2
smoothSolver:  Solving for Uz, Initial residual = 0.000601107, Final residual = 1.10717e-05, No Iterations 2
GAMG:  Solving for p, Initial residual = 0.00182599, Final residual = 0.000166375, No Iterations 1
time step continuity errors : sum local = 8.73052e-08, global = -8.7298e-09, cumulative = -1.87968e-05
smoothSolver:  Solving for omega, Initial residual = 0.000817649, Final residual = 1.34537e-05, No Iterations 2
smoothSolver:  Solving for k, Initial residual = 0.000220126, Final residual = 4.03721e-06, No Iterations 2
ExecutionTime = 134.865 s  ClockTime = 135 s

Time = 986s

smoothSolver:  Solving for Ux, Initial residual = 0.000256732, Final residual = 4.54883e-06, No Iterations 2
smoothSolver:  Solving for Uy, Initial residual = 0.000503074, Final residual = 9.20352e-06, No Iterations 2
smoothSolver:  Solving for Uz, Initial residual = 0.000598862, Final residual = 1.10296e-05, No Iterations 2
GAMG:  Solving for p, Initial residual = 0.00185577, Final residual = 5.74718e-05, No Iterations 2
time step continuity errors : sum local = 3.01729e-08, global = -5.05987e-09, cumulative = -1.88019e-05
smoothSolver:  Solving for omega, Initial residual = 0.000817864, Final residual = 1.34566e-05, No Iterations 2
smoothSolver:  Solving for k, Initial residual = 0.000219988, Final residual = 4.03495e-06, No Iterations 2
ExecutionTime = 135.003 s  ClockTime = 135 s

Time = 987s

smoothSolver:  Solving for Ux, Initial residual = 0.000256581, Final residual = 4.5466e-06, No Iterations 2
smoothSolver:  Solving for Uy, Initial residual = 0.000502514, Final residual = 9.19422e-06, No Iterations 2
smoothSolver:  Solving for Uz, Initial residual = 0.000598154, Final residual = 1.10171e-05, No Iterations 2
GAMG:  Solving for p, Initial residual = 0.00183845, Final residual = 0.000179641, No Iterations 1
time step continuity errors : sum local = 9.43703e-08, global = -8.99941e-09, cumulative = -1.88109e-05
smoothSolver:  Solving for omega, Initial residual = 0.000818079, Final residual = 1.34595e-05, No Iterations 2
smoothSolver:  Solving for k, Initial residual = 0.000219851, Final residual = 4.0327e-06, No Iterations 2
ExecutionTime = 135.131 s  ClockTime = 135 s

Time = 988s

smoothSolver:  Solving for Ux, Initial residual = 0.000256429, Final residual = 4.54437e-06, No Iterations 2
smoothSolver:  Solving for Uy, Initial residual = 0.000501191, Final residual = 9.17026e-06, No Iterations 2
smoothSolver:  Solving for Uz, Initial residual = 0.000596065, Final residual = 1.09779e-05, No Iterations 2
GAMG:  Solving for p, Initial residual = 0.00187437, Final residual = 6.31078e-05, No Iterations 2
time step continuity errors : sum local = 3.31686e-08, global = -5.42118e-09, cumulative = -1.88163e-05
smoothSolver:  Solving for omega, Initial residual = 0.000818291, Final residual = 1.34623e-05, No Iterations 2
smoothSolver:  Solving for k, Initial residual = 0.000219714, Final residual = 4.03045e-06, No Iterations 2
ExecutionTime = 135.265 s  ClockTime = 135 s

Time = 989s

smoothSolver:  Solving for Ux, Initial residual = 0.000256278, Final residual = 4.54214e-06, No Iterations 2
smoothSolver:  Solving for Uy, Initial residual = 0.000500841, Final residual = 9.16501e-06, No Iterations 2
smoothSolver:  Solving for Uz, Initial residual = 0.000595709, Final residual = 1.09721e-05, No Iterations 2
GAMG:  Solving for p, Initial residual = 0.00184468, Final residual = 5.79049e-05, No Iterations 2
time step continuity errors : sum local = 3.04536e-08, global = -5.431e-09, cumulative = -1.88217e-05
smoothSolver:  Solving for omega, Initial residual = 0.000818502, Final residual = 1.34651e-05, No Iterations 2
smoothSolver:  Solving for k, Initial residual = 0.000219577, Final residual = 4.0282e-06, No Iterations 2
ExecutionTime = 135.401 s  ClockTime = 135 s

Time = 990s

smoothSolver:  Solving for Ux, Initial residual = 0.000256127, Final residual = 4.53992e-06, No Iterations 2
smoothSolver:  Solving for Uy, Initial residual = 0.000500361, Final residual = 9.15721e-06, No Iterations 2
smoothSolver:  Solving for Uz, Initial residual = 0.000595068, Final residual = 1.0961e-05, No Iterations 2
GAMG:  Solving for p, Initial residual = 0.00180729, Final residual = 0.000163614, No Iterations 1
time step continuity errors : sum local = 8.61033e-08, global = -9.56956e-09, cumulative = -1.88313e-05
smoothSolver:  Solving for omega, Initial residual = 0.000818713, Final residual = 1.34679e-05, No Iterations 2
smoothSolver:  Solving for k, Initial residual = 0.00021944, Final residual = 4.02595e-06, No Iterations 2
ExecutionTime = 135.534 s  ClockTime = 135 s

Time = 991s

smoothSolver:  Solving for Ux, Initial residual = 0.000255976, Final residual = 4.5377e-06, No Iterations 2
smoothSolver:  Solving for Uy, Initial residual = 0.000498987, Final residual = 9.13222e-06, No Iterations 2
smoothSolver:  Solving for Uz, Initial residual = 0.00059282, Final residual = 1.09189e-05, No Iterations 2
GAMG:  Solving for p, Initial residual = 0.0018319, Final residual = 0.00018314, No Iterations 1
time step continuity errors : sum local = 9.64269e-08, global = -1.03828e-08, cumulative = -1.88417e-05
smoothSolver:  Solving for omega, Initial residual = 0.000818921, Final residual = 1.34707e-05, No Iterations 2
smoothSolver:  Solving for k, Initial residual = 0.000219303, Final residual = 4.02371e-06, No Iterations 2
ExecutionTime = 135.662 s  ClockTime = 136 s

Time = 992s

smoothSolver:  Solving for Ux, Initial residual = 0.000255826, Final residual = 4.53548e-06, No Iterations 2
smoothSolver:  Solving for Uy, Initial residual = 0.000497706, Final residual = 9.10904e-06, No Iterations 2
smoothSolver:  Solving for Uz, Initial residual = 0.000590802, Final residual = 1.08809e-05, No Iterations 2
GAMG:  Solving for p, Initial residual = 0.00187909, Final residual = 6.62607e-05, No Iterations 2
time step continuity errors : sum local = 3.49051e-08, global = -6.3318e-09, cumulative = -1.8848e-05
smoothSolver:  Solving for omega, Initial residual = 0.000819127, Final residual = 1.34735e-05, No Iterations 2
smoothSolver:  Solving for k, Initial residual = 0.000219167, Final residual = 4.02147e-06, No Iterations 2
ExecutionTime = 135.804 s  ClockTime = 136 s

Time = 993s

smoothSolver:  Solving for Ux, Initial residual = 0.000255675, Final residual = 4.53327e-06, No Iterations 2
smoothSolver:  Solving for Uy, Initial residual = 0.000497498, Final residual = 9.10646e-06, No Iterations 2
smoothSolver:  Solving for Uz, Initial residual = 0.000590701, Final residual = 1.08801e-05, No Iterations 2
GAMG:  Solving for p, Initial residual = 0.0018468, Final residual = 6.07134e-05, No Iterations 2
time step continuity errors : sum local = 3.20049e-08, global = -6.13955e-09, cumulative = -1.88541e-05
smoothSolver:  Solving for omega, Initial residual = 0.000819332, Final residual = 1.34762e-05, No Iterations 2
smoothSolver:  Solving for k, Initial residual = 0.00021903, Final residual = 4.01923e-06, No Iterations 2
ExecutionTime = 135.943 s  ClockTime = 136 s

Time = 994s

smoothSolver:  Solving for Ux, Initial residual = 0.000255525, Final residual = 4.53107e-06, No Iterations 2
smoothSolver:  Solving for Uy, Initial residual = 0.000497142, Final residual = 9.10099e-06, No Iterations 2
smoothSolver:  Solving for Uz, Initial residual = 0.000590288, Final residual = 1.08733e-05, No Iterations 2
GAMG:  Solving for p, Initial residual = 0.0018, Final residual = 0.000166669, No Iterations 1
time step continuity errors : sum local = 8.79181e-08, global = -1.02131e-08, cumulative = -1.88643e-05
smoothSolver:  Solving for omega, Initial residual = 0.000819536, Final residual = 1.34789e-05, No Iterations 2
smoothSolver:  Solving for k, Initial residual = 0.000218894, Final residual = 4.01699e-06, No Iterations 2
ExecutionTime = 136.074 s  ClockTime = 136 s

Time = 995s

smoothSolver:  Solving for Ux, Initial residual = 0.000255376, Final residual = 4.52886e-06, No Iterations 2
smoothSolver:  Solving for Uy, Initial residual = 0.000495804, Final residual = 9.07668e-06, No Iterations 2
smoothSolver:  Solving for Uz, Initial residual = 0.000588099, Final residual = 1.08322e-05, No Iterations 2
GAMG:  Solving for p, Initial residual = 0.00181701, Final residual = 0.000180697, No Iterations 1
time step continuity errors : sum local = 9.5366e-08, global = -1.03786e-08, cumulative = -1.88747e-05
smoothSolver:  Solving for omega, Initial residual = 0.000819737, Final residual = 1.34816e-05, No Iterations 2
smoothSolver:  Solving for k, Initial residual = 0.000218758, Final residual = 4.01475e-06, No Iterations 2
ExecutionTime = 136.212 s  ClockTime = 136 s

Time = 996s

smoothSolver:  Solving for Ux, Initial residual = 0.000255226, Final residual = 4.52666e-06, No Iterations 2
smoothSolver:  Solving for Uy, Initial residual = 0.000494537, Final residual = 9.05374e-06, No Iterations 2
smoothSolver:  Solving for Uz, Initial residual = 0.00058608, Final residual = 1.07942e-05, No Iterations 2
GAMG:  Solving for p, Initial residual = 0.00185732, Final residual = 6.43049e-05, No Iterations 2
time step continuity errors : sum local = 3.39552e-08, global = -6.01943e-09, cumulative = -1.88807e-05
smoothSolver:  Solving for omega, Initial residual = 0.000819937, Final residual = 1.34843e-05, No Iterations 2
smoothSolver:  Solving for k, Initial residual = 0.000218622, Final residual = 4.01252e-06, No Iterations 2
ExecutionTime = 136.355 s  ClockTime = 136 s

Time = 997s

smoothSolver:  Solving for Ux, Initial residual = 0.000255077, Final residual = 4.52446e-06, No Iterations 2
smoothSolver:  Solving for Uy, Initial residual = 0.000494294, Final residual = 9.0505e-06, No Iterations 2
smoothSolver:  Solving for Uz, Initial residual = 0.000585872, Final residual = 1.07914e-05, No Iterations 2
GAMG:  Solving for p, Initial residual = 0.00182499, Final residual = 5.85615e-05, No Iterations 2
time step continuity errors : sum local = 3.09433e-08, global = -5.64427e-09, cumulative = -1.88864e-05
smoothSolver:  Solving for omega, Initial residual = 0.000820135, Final residual = 1.3487e-05, No Iterations 2
smoothSolver:  Solving for k, Initial residual = 0.000218486, Final residual = 4.01029e-06, No Iterations 2
ExecutionTime = 136.492 s  ClockTime = 136 s

Time = 998s

smoothSolver:  Solving for Ux, Initial residual = 0.000254928, Final residual = 4.52227e-06, No Iterations 2
smoothSolver:  Solving for Uy, Initial residual = 0.000493887, Final residual = 9.04407e-06, No Iterations 2
smoothSolver:  Solving for Uz, Initial residual = 0.000585327, Final residual = 1.07821e-05, No Iterations 2
GAMG:  Solving for p, Initial residual = 0.00178176, Final residual = 0.00016207, No Iterations 1
time step continuity errors : sum local = 8.56923e-08, global = -9.12355e-09, cumulative = -1.88955e-05
smoothSolver:  Solving for omega, Initial residual = 0.000820333, Final residual = 1.34896e-05, No Iterations 2
smoothSolver:  Solving for k, Initial residual = 0.00021835, Final residual = 4.00806e-06, No Iterations 2
ExecutionTime = 136.624 s  ClockTime = 136 s

Time = 999s

smoothSolver:  Solving for Ux, Initial residual = 0.000254779, Final residual = 4.52008e-06, No Iterations 2
smoothSolver:  Solving for Uy, Initial residual = 0.00049255, Final residual = 9.01978e-06, No Iterations 2
smoothSolver:  Solving for Uz, Initial residual = 0.00058311, Final residual = 1.07405e-05, No Iterations 2
GAMG:  Solving for p, Initial residual = 0.00180072, Final residual = 0.000178066, No Iterations 1
time step continuity errors : sum local = 9.41967e-08, global = -9.16255e-09, cumulative = -1.89047e-05
smoothSolver:  Solving for omega, Initial residual = 0.000820528, Final residual = 1.34922e-05, No Iterations 2
smoothSolver:  Solving for k, Initial residual = 0.000218214, Final residual = 4.00583e-06, No Iterations 2
ExecutionTime = 136.753 s  ClockTime = 137 s

Time = 1000s

smoothSolver:  Solving for Ux, Initial residual = 0.000254631, Final residual = 4.51789e-06, No Iterations 2
smoothSolver:  Solving for Uy, Initial residual = 0.00049129, Final residual = 8.99698e-06, No Iterations 2
smoothSolver:  Solving for Uz, Initial residual = 0.000581083, Final residual = 1.07021e-05, No Iterations 2
GAMG:  Solving for p, Initial residual = 0.00184292, Final residual = 6.38388e-05, No Iterations 2
time step continuity errors : sum local = 3.37875e-08, global = -5.41402e-09, cumulative = -1.89101e-05
smoothSolver:  Solving for omega, Initial residual = 0.000820722, Final residual = 1.34948e-05, No Iterations 2
smoothSolver:  Solving for k, Initial residual = 0.000218079, Final residual = 4.0036e-06, No Iterations 2
ExecutionTime = 136.9 s  ClockTime = 137 s

End

Finalising parallel run
